
---------- Begin Simulation Statistics ----------
simSeconds                                   0.000026                       # Number of seconds simulated (Second)
simTicks                                     25901500                       # Number of ticks simulated (Tick)
finalTick                                    25901500                       # Number of ticks from beginning of simulation (restored from checkpoints and never reset) (Tick)
simFreq                                  1000000000000                       # The number of ticks per simulated second ((Tick/Second))
hostSeconds                                      0.44                       # Real time elapsed on the host (Second)
hostTickRate                                 59234965                       # The number of ticks simulated per host second (ticks/s) ((Tick/Second))
hostMemory                                    2261968                       # Number of bytes of host memory used (Byte)
simInsts                                         8626                       # Number of instructions simulated (Count)
simOps                                          10317                       # Number of ops (including micro ops) simulated (Count)
hostInstRate                                    19724                       # Simulator instruction rate (inst/s) ((Count/Second))
hostOpRate                                      23590                       # Simulator op (including micro ops) rate (op/s) ((Count/Second))
system.clk_domain.clock                          1000                       # Clock period in ticks (Tick)
system.cpu_cluster.clk_domain.clock               250                       # Clock period in ticks (Tick)
system.cpu_cluster.cpus.numCycles              103607                       # Number of cpu cycles simulated (Cycle)
system.cpu_cluster.cpus.numWorkItemsStarted            0                       # Number of work items this cpu started (Count)
system.cpu_cluster.cpus.numWorkItemsCompleted            0                       # Number of work items this cpu completed (Count)
system.cpu_cluster.cpus.instsAdded              17820                       # Number of instructions added to the IQ (excludes non-spec) (Count)
system.cpu_cluster.cpus.nonSpecInstsAdded          133                       # Number of non-speculative instructions added to the IQ (Count)
system.cpu_cluster.cpus.instsIssued             16071                       # Number of instructions issued (Count)
system.cpu_cluster.cpus.NoReadyInst             97004                       # No instructions ready in this cycle (Count)
system.cpu_cluster.cpus.ReadyInstMoreThanBW         1556                       # More ready instructions than available bandwidth (Count)
system.cpu_cluster.cpus.squashedInstsIssued           95                       # Number of squashed instructions issued (Count)
system.cpu_cluster.cpus.squashedInstsExamined         7635                       # Number of squashed instructions iterated over during squash; mainly for profiling (Count)
system.cpu_cluster.cpus.squashedOperandsExamined         4433                       # Number of squashed operands that are examined and possibly removed from graph (Count)
system.cpu_cluster.cpus.squashedNonSpecRemoved           41                       # Number of squashed non-spec instructions that were removed (Count)
system.cpu_cluster.cpus.fuBusyS                     7                       # FU busy when requested (Count)
system.cpu_cluster.cpus.numIssuedDist::samples       103607                       # Number of insts issued each cycle (Count)
system.cpu_cluster.cpus.numIssuedDist::mean     0.155115                       # Number of insts issued each cycle (Count)
system.cpu_cluster.cpus.numIssuedDist::stdev     0.658385                       # Number of insts issued each cycle (Count)
system.cpu_cluster.cpus.numIssuedDist::underflows            0      0.00%      0.00% # Number of insts issued each cycle (Count)
system.cpu_cluster.cpus.numIssuedDist::0        97004     93.63%     93.63% # Number of insts issued each cycle (Count)
system.cpu_cluster.cpus.numIssuedDist::1         1777      1.72%     95.34% # Number of insts issued each cycle (Count)
system.cpu_cluster.cpus.numIssuedDist::2         1740      1.68%     97.02% # Number of insts issued each cycle (Count)
system.cpu_cluster.cpus.numIssuedDist::3         1530      1.48%     98.50% # Number of insts issued each cycle (Count)
system.cpu_cluster.cpus.numIssuedDist::4         1556      1.50%    100.00% # Number of insts issued each cycle (Count)
system.cpu_cluster.cpus.numIssuedDist::overflows            0      0.00%    100.00% # Number of insts issued each cycle (Count)
system.cpu_cluster.cpus.numIssuedDist::min_value            0                       # Number of insts issued each cycle (Count)
system.cpu_cluster.cpus.numIssuedDist::max_value            4                       # Number of insts issued each cycle (Count)
system.cpu_cluster.cpus.numIssuedDist::total       103607                       # Number of insts issued each cycle (Count)
system.cpu_cluster.cpus.statFuBusy::No_OpClass            0      0.00%      0.00% # attempts to use FU when none available (Count)
system.cpu_cluster.cpus.statFuBusy::IntAlu            0      0.00%      0.00% # attempts to use FU when none available (Count)
system.cpu_cluster.cpus.statFuBusy::IntMult            0      0.00%      0.00% # attempts to use FU when none available (Count)
system.cpu_cluster.cpus.statFuBusy::IntDiv            0      0.00%      0.00% # attempts to use FU when none available (Count)
system.cpu_cluster.cpus.statFuBusy::FloatAdd            0      0.00%      0.00% # attempts to use FU when none available (Count)
system.cpu_cluster.cpus.statFuBusy::FloatCmp            0      0.00%      0.00% # attempts to use FU when none available (Count)
system.cpu_cluster.cpus.statFuBusy::FloatCvt            0      0.00%      0.00% # attempts to use FU when none available (Count)
system.cpu_cluster.cpus.statFuBusy::FloatMult            0      0.00%      0.00% # attempts to use FU when none available (Count)
system.cpu_cluster.cpus.statFuBusy::FloatMultAcc            0      0.00%      0.00% # attempts to use FU when none available (Count)
system.cpu_cluster.cpus.statFuBusy::FloatDiv            0      0.00%      0.00% # attempts to use FU when none available (Count)
system.cpu_cluster.cpus.statFuBusy::FloatMisc            0      0.00%      0.00% # attempts to use FU when none available (Count)
system.cpu_cluster.cpus.statFuBusy::FloatSqrt            0      0.00%      0.00% # attempts to use FU when none available (Count)
system.cpu_cluster.cpus.statFuBusy::SimdAdd            0      0.00%      0.00% # attempts to use FU when none available (Count)
system.cpu_cluster.cpus.statFuBusy::SimdAddAcc            0      0.00%      0.00% # attempts to use FU when none available (Count)
system.cpu_cluster.cpus.statFuBusy::SimdAlu            0      0.00%      0.00% # attempts to use FU when none available (Count)
system.cpu_cluster.cpus.statFuBusy::SimdCmp            0      0.00%      0.00% # attempts to use FU when none available (Count)
system.cpu_cluster.cpus.statFuBusy::SimdCvt            0      0.00%      0.00% # attempts to use FU when none available (Count)
system.cpu_cluster.cpus.statFuBusy::SimdMisc            0      0.00%      0.00% # attempts to use FU when none available (Count)
system.cpu_cluster.cpus.statFuBusy::SimdMult            0      0.00%      0.00% # attempts to use FU when none available (Count)
system.cpu_cluster.cpus.statFuBusy::SimdMultAcc            0      0.00%      0.00% # attempts to use FU when none available (Count)
system.cpu_cluster.cpus.statFuBusy::SimdShift            0      0.00%      0.00% # attempts to use FU when none available (Count)
system.cpu_cluster.cpus.statFuBusy::SimdShiftAcc            0      0.00%      0.00% # attempts to use FU when none available (Count)
system.cpu_cluster.cpus.statFuBusy::SimdDiv            0      0.00%      0.00% # attempts to use FU when none available (Count)
system.cpu_cluster.cpus.statFuBusy::SimdSqrt            0      0.00%      0.00% # attempts to use FU when none available (Count)
system.cpu_cluster.cpus.statFuBusy::SimdFloatAdd            0      0.00%      0.00% # attempts to use FU when none available (Count)
system.cpu_cluster.cpus.statFuBusy::SimdFloatAlu            0      0.00%      0.00% # attempts to use FU when none available (Count)
system.cpu_cluster.cpus.statFuBusy::SimdFloatCmp            0      0.00%      0.00% # attempts to use FU when none available (Count)
system.cpu_cluster.cpus.statFuBusy::SimdFloatCvt            0      0.00%      0.00% # attempts to use FU when none available (Count)
system.cpu_cluster.cpus.statFuBusy::SimdFloatDiv            0      0.00%      0.00% # attempts to use FU when none available (Count)
system.cpu_cluster.cpus.statFuBusy::SimdFloatMisc            0      0.00%      0.00% # attempts to use FU when none available (Count)
system.cpu_cluster.cpus.statFuBusy::SimdFloatMult            0      0.00%      0.00% # attempts to use FU when none available (Count)
system.cpu_cluster.cpus.statFuBusy::SimdFloatMultAcc            0      0.00%      0.00% # attempts to use FU when none available (Count)
system.cpu_cluster.cpus.statFuBusy::SimdFloatSqrt            0      0.00%      0.00% # attempts to use FU when none available (Count)
system.cpu_cluster.cpus.statFuBusy::SimdReduceAdd            0      0.00%      0.00% # attempts to use FU when none available (Count)
system.cpu_cluster.cpus.statFuBusy::SimdReduceAlu            0      0.00%      0.00% # attempts to use FU when none available (Count)
system.cpu_cluster.cpus.statFuBusy::SimdReduceCmp            0      0.00%      0.00% # attempts to use FU when none available (Count)
system.cpu_cluster.cpus.statFuBusy::SimdFloatReduceAdd            0      0.00%      0.00% # attempts to use FU when none available (Count)
system.cpu_cluster.cpus.statFuBusy::SimdFloatReduceCmp            0      0.00%      0.00% # attempts to use FU when none available (Count)
system.cpu_cluster.cpus.statFuBusy::SimdAes            0      0.00%      0.00% # attempts to use FU when none available (Count)
system.cpu_cluster.cpus.statFuBusy::SimdAesMix            0      0.00%      0.00% # attempts to use FU when none available (Count)
system.cpu_cluster.cpus.statFuBusy::SimdSha1Hash            0      0.00%      0.00% # attempts to use FU when none available (Count)
system.cpu_cluster.cpus.statFuBusy::SimdSha1Hash2            0      0.00%      0.00% # attempts to use FU when none available (Count)
system.cpu_cluster.cpus.statFuBusy::SimdSha256Hash            0      0.00%      0.00% # attempts to use FU when none available (Count)
system.cpu_cluster.cpus.statFuBusy::SimdSha256Hash2            0      0.00%      0.00% # attempts to use FU when none available (Count)
system.cpu_cluster.cpus.statFuBusy::SimdShaSigma2            0      0.00%      0.00% # attempts to use FU when none available (Count)
system.cpu_cluster.cpus.statFuBusy::SimdShaSigma3            0      0.00%      0.00% # attempts to use FU when none available (Count)
system.cpu_cluster.cpus.statFuBusy::SimdPredAlu            0      0.00%      0.00% # attempts to use FU when none available (Count)
system.cpu_cluster.cpus.statFuBusy::MemRead            7    100.00%    100.00% # attempts to use FU when none available (Count)
system.cpu_cluster.cpus.statFuBusy::MemWrite            0      0.00%    100.00% # attempts to use FU when none available (Count)
system.cpu_cluster.cpus.statFuBusy::FloatMemRead            0      0.00%    100.00% # attempts to use FU when none available (Count)
system.cpu_cluster.cpus.statFuBusy::FloatMemWrite            0      0.00%    100.00% # attempts to use FU when none available (Count)
system.cpu_cluster.cpus.statFuBusy::IprAccess            0      0.00%    100.00% # attempts to use FU when none available (Count)
system.cpu_cluster.cpus.statFuBusy::InstPrefetch            0      0.00%    100.00% # attempts to use FU when none available (Count)
system.cpu_cluster.cpus.statFuNoFree::No_OpClass            0      0.00%      0.00% # attempts to use FU when none available (Count)
system.cpu_cluster.cpus.statFuNoFree::IntAlu            0      0.00%      0.00% # attempts to use FU when none available (Count)
system.cpu_cluster.cpus.statFuNoFree::IntMult            0      0.00%      0.00% # attempts to use FU when none available (Count)
system.cpu_cluster.cpus.statFuNoFree::IntDiv            0      0.00%      0.00% # attempts to use FU when none available (Count)
system.cpu_cluster.cpus.statFuNoFree::FloatAdd            0      0.00%      0.00% # attempts to use FU when none available (Count)
system.cpu_cluster.cpus.statFuNoFree::FloatCmp            0      0.00%      0.00% # attempts to use FU when none available (Count)
system.cpu_cluster.cpus.statFuNoFree::FloatCvt            0      0.00%      0.00% # attempts to use FU when none available (Count)
system.cpu_cluster.cpus.statFuNoFree::FloatMult            0      0.00%      0.00% # attempts to use FU when none available (Count)
system.cpu_cluster.cpus.statFuNoFree::FloatMultAcc            0      0.00%      0.00% # attempts to use FU when none available (Count)
system.cpu_cluster.cpus.statFuNoFree::FloatDiv            0      0.00%      0.00% # attempts to use FU when none available (Count)
system.cpu_cluster.cpus.statFuNoFree::FloatMisc            0      0.00%      0.00% # attempts to use FU when none available (Count)
system.cpu_cluster.cpus.statFuNoFree::FloatSqrt            0      0.00%      0.00% # attempts to use FU when none available (Count)
system.cpu_cluster.cpus.statFuNoFree::SimdAdd            0      0.00%      0.00% # attempts to use FU when none available (Count)
system.cpu_cluster.cpus.statFuNoFree::SimdAddAcc            0      0.00%      0.00% # attempts to use FU when none available (Count)
system.cpu_cluster.cpus.statFuNoFree::SimdAlu            0      0.00%      0.00% # attempts to use FU when none available (Count)
system.cpu_cluster.cpus.statFuNoFree::SimdCmp            0      0.00%      0.00% # attempts to use FU when none available (Count)
system.cpu_cluster.cpus.statFuNoFree::SimdCvt            0      0.00%      0.00% # attempts to use FU when none available (Count)
system.cpu_cluster.cpus.statFuNoFree::SimdMisc            0      0.00%      0.00% # attempts to use FU when none available (Count)
system.cpu_cluster.cpus.statFuNoFree::SimdMult            0      0.00%      0.00% # attempts to use FU when none available (Count)
system.cpu_cluster.cpus.statFuNoFree::SimdMultAcc            0      0.00%      0.00% # attempts to use FU when none available (Count)
system.cpu_cluster.cpus.statFuNoFree::SimdShift            0      0.00%      0.00% # attempts to use FU when none available (Count)
system.cpu_cluster.cpus.statFuNoFree::SimdShiftAcc            0      0.00%      0.00% # attempts to use FU when none available (Count)
system.cpu_cluster.cpus.statFuNoFree::SimdDiv            0      0.00%      0.00% # attempts to use FU when none available (Count)
system.cpu_cluster.cpus.statFuNoFree::SimdSqrt            0      0.00%      0.00% # attempts to use FU when none available (Count)
system.cpu_cluster.cpus.statFuNoFree::SimdFloatAdd            0      0.00%      0.00% # attempts to use FU when none available (Count)
system.cpu_cluster.cpus.statFuNoFree::SimdFloatAlu            0      0.00%      0.00% # attempts to use FU when none available (Count)
system.cpu_cluster.cpus.statFuNoFree::SimdFloatCmp            0      0.00%      0.00% # attempts to use FU when none available (Count)
system.cpu_cluster.cpus.statFuNoFree::SimdFloatCvt            0      0.00%      0.00% # attempts to use FU when none available (Count)
system.cpu_cluster.cpus.statFuNoFree::SimdFloatDiv            0      0.00%      0.00% # attempts to use FU when none available (Count)
system.cpu_cluster.cpus.statFuNoFree::SimdFloatMisc            0      0.00%      0.00% # attempts to use FU when none available (Count)
system.cpu_cluster.cpus.statFuNoFree::SimdFloatMult            0      0.00%      0.00% # attempts to use FU when none available (Count)
system.cpu_cluster.cpus.statFuNoFree::SimdFloatMultAcc            0      0.00%      0.00% # attempts to use FU when none available (Count)
system.cpu_cluster.cpus.statFuNoFree::SimdFloatSqrt            0      0.00%      0.00% # attempts to use FU when none available (Count)
system.cpu_cluster.cpus.statFuNoFree::SimdReduceAdd            0      0.00%      0.00% # attempts to use FU when none available (Count)
system.cpu_cluster.cpus.statFuNoFree::SimdReduceAlu            0      0.00%      0.00% # attempts to use FU when none available (Count)
system.cpu_cluster.cpus.statFuNoFree::SimdReduceCmp            0      0.00%      0.00% # attempts to use FU when none available (Count)
system.cpu_cluster.cpus.statFuNoFree::SimdFloatReduceAdd            0      0.00%      0.00% # attempts to use FU when none available (Count)
system.cpu_cluster.cpus.statFuNoFree::SimdFloatReduceCmp            0      0.00%      0.00% # attempts to use FU when none available (Count)
system.cpu_cluster.cpus.statFuNoFree::SimdAes            0      0.00%      0.00% # attempts to use FU when none available (Count)
system.cpu_cluster.cpus.statFuNoFree::SimdAesMix            0      0.00%      0.00% # attempts to use FU when none available (Count)
system.cpu_cluster.cpus.statFuNoFree::SimdSha1Hash            0      0.00%      0.00% # attempts to use FU when none available (Count)
system.cpu_cluster.cpus.statFuNoFree::SimdSha1Hash2            0      0.00%      0.00% # attempts to use FU when none available (Count)
system.cpu_cluster.cpus.statFuNoFree::SimdSha256Hash            0      0.00%      0.00% # attempts to use FU when none available (Count)
system.cpu_cluster.cpus.statFuNoFree::SimdSha256Hash2            0      0.00%      0.00% # attempts to use FU when none available (Count)
system.cpu_cluster.cpus.statFuNoFree::SimdShaSigma2            0      0.00%      0.00% # attempts to use FU when none available (Count)
system.cpu_cluster.cpus.statFuNoFree::SimdShaSigma3            0      0.00%      0.00% # attempts to use FU when none available (Count)
system.cpu_cluster.cpus.statFuNoFree::SimdPredAlu            0      0.00%      0.00% # attempts to use FU when none available (Count)
system.cpu_cluster.cpus.statFuNoFree::MemRead           17     68.00%     68.00% # attempts to use FU when none available (Count)
system.cpu_cluster.cpus.statFuNoFree::MemWrite            8     32.00%    100.00% # attempts to use FU when none available (Count)
system.cpu_cluster.cpus.statFuNoFree::FloatMemRead            0      0.00%    100.00% # attempts to use FU when none available (Count)
system.cpu_cluster.cpus.statFuNoFree::FloatMemWrite            0      0.00%    100.00% # attempts to use FU when none available (Count)
system.cpu_cluster.cpus.statFuNoFree::IprAccess            0      0.00%    100.00% # attempts to use FU when none available (Count)
system.cpu_cluster.cpus.statFuNoFree::InstPrefetch            0      0.00%    100.00% # attempts to use FU when none available (Count)
system.cpu_cluster.cpus.statAvgFUUtilization::No_OpClass            0      0.00%      0.00% # Avg utilization of FU (Count)
system.cpu_cluster.cpus.statAvgFUUtilization::IntAlu     0.106586     28.85%     28.85% # Avg utilization of FU (Count)
system.cpu_cluster.cpus.statAvgFUUtilization::IntMult     0.026379      7.14%     35.99% # Avg utilization of FU (Count)
system.cpu_cluster.cpus.statAvgFUUtilization::IntDiv     0.026379      7.14%     43.14% # Avg utilization of FU (Count)
system.cpu_cluster.cpus.statAvgFUUtilization::FloatAdd     0.000347      0.09%     43.23% # Avg utilization of FU (Count)
system.cpu_cluster.cpus.statAvgFUUtilization::FloatCmp     0.000347      0.09%     43.32% # Avg utilization of FU (Count)
system.cpu_cluster.cpus.statAvgFUUtilization::FloatCvt     0.000347      0.09%     43.42% # Avg utilization of FU (Count)
system.cpu_cluster.cpus.statAvgFUUtilization::FloatMult     0.000347      0.09%     43.51% # Avg utilization of FU (Count)
system.cpu_cluster.cpus.statAvgFUUtilization::FloatMultAcc     0.000347      0.09%     43.61% # Avg utilization of FU (Count)
system.cpu_cluster.cpus.statAvgFUUtilization::FloatDiv     0.000174      0.05%     43.65% # Avg utilization of FU (Count)
system.cpu_cluster.cpus.statAvgFUUtilization::FloatMisc     0.000347      0.09%     43.75% # Avg utilization of FU (Count)
system.cpu_cluster.cpus.statAvgFUUtilization::FloatSqrt     0.000174      0.05%     43.79% # Avg utilization of FU (Count)
system.cpu_cluster.cpus.statAvgFUUtilization::SimdAdd     0.000347      0.09%     43.89% # Avg utilization of FU (Count)
system.cpu_cluster.cpus.statAvgFUUtilization::SimdAddAcc     0.000174      0.05%     43.94% # Avg utilization of FU (Count)
system.cpu_cluster.cpus.statAvgFUUtilization::SimdAlu     0.000347      0.09%     44.03% # Avg utilization of FU (Count)
system.cpu_cluster.cpus.statAvgFUUtilization::SimdCmp     0.000347      0.09%     44.12% # Avg utilization of FU (Count)
system.cpu_cluster.cpus.statAvgFUUtilization::SimdCvt     0.000270      0.07%     44.20% # Avg utilization of FU (Count)
system.cpu_cluster.cpus.statAvgFUUtilization::SimdMisc     0.000347      0.09%     44.29% # Avg utilization of FU (Count)
system.cpu_cluster.cpus.statAvgFUUtilization::SimdMult     0.000347      0.09%     44.38% # Avg utilization of FU (Count)
system.cpu_cluster.cpus.statAvgFUUtilization::SimdMultAcc     0.000174      0.05%     44.43% # Avg utilization of FU (Count)
system.cpu_cluster.cpus.statAvgFUUtilization::SimdShift     0.000174      0.05%     44.48% # Avg utilization of FU (Count)
system.cpu_cluster.cpus.statAvgFUUtilization::SimdShiftAcc     0.000174      0.05%     44.53% # Avg utilization of FU (Count)
system.cpu_cluster.cpus.statAvgFUUtilization::SimdDiv            0      0.00%     44.53% # Avg utilization of FU (Count)
system.cpu_cluster.cpus.statAvgFUUtilization::SimdSqrt     0.000174      0.05%     44.57% # Avg utilization of FU (Count)
system.cpu_cluster.cpus.statAvgFUUtilization::SimdFloatAdd     0.000347      0.09%     44.67% # Avg utilization of FU (Count)
system.cpu_cluster.cpus.statAvgFUUtilization::SimdFloatAlu            0      0.00%     44.67% # Avg utilization of FU (Count)
system.cpu_cluster.cpus.statAvgFUUtilization::SimdFloatCmp     0.000347      0.09%     44.76% # Avg utilization of FU (Count)
system.cpu_cluster.cpus.statAvgFUUtilization::SimdFloatCvt            0      0.00%     44.76% # Avg utilization of FU (Count)
system.cpu_cluster.cpus.statAvgFUUtilization::SimdFloatDiv     0.000174      0.05%     44.81% # Avg utilization of FU (Count)
system.cpu_cluster.cpus.statAvgFUUtilization::SimdFloatMisc     0.000347      0.09%     44.90% # Avg utilization of FU (Count)
system.cpu_cluster.cpus.statAvgFUUtilization::SimdFloatMult            0      0.00%     44.90% # Avg utilization of FU (Count)
system.cpu_cluster.cpus.statAvgFUUtilization::SimdFloatMultAcc     0.000347      0.09%     45.00% # Avg utilization of FU (Count)
system.cpu_cluster.cpus.statAvgFUUtilization::SimdFloatSqrt     0.000174      0.05%     45.04% # Avg utilization of FU (Count)
system.cpu_cluster.cpus.statAvgFUUtilization::SimdReduceAdd     0.000347      0.09%     45.14% # Avg utilization of FU (Count)
system.cpu_cluster.cpus.statAvgFUUtilization::SimdReduceAlu     0.000347      0.09%     45.23% # Avg utilization of FU (Count)
system.cpu_cluster.cpus.statAvgFUUtilization::SimdReduceCmp     0.000174      0.05%     45.28% # Avg utilization of FU (Count)
system.cpu_cluster.cpus.statAvgFUUtilization::SimdFloatReduceAdd     0.000347      0.09%     45.37% # Avg utilization of FU (Count)
system.cpu_cluster.cpus.statAvgFUUtilization::SimdFloatReduceCmp     0.000347      0.09%     45.47% # Avg utilization of FU (Count)
system.cpu_cluster.cpus.statAvgFUUtilization::SimdAes     0.000347      0.09%     45.56% # Avg utilization of FU (Count)
system.cpu_cluster.cpus.statAvgFUUtilization::SimdAesMix     0.000347      0.09%     45.65% # Avg utilization of FU (Count)
system.cpu_cluster.cpus.statAvgFUUtilization::SimdSha1Hash     0.000087      0.02%     45.68% # Avg utilization of FU (Count)
system.cpu_cluster.cpus.statAvgFUUtilization::SimdSha1Hash2     0.000087      0.02%     45.70% # Avg utilization of FU (Count)
system.cpu_cluster.cpus.statAvgFUUtilization::SimdSha256Hash     0.000087      0.02%     45.73% # Avg utilization of FU (Count)
system.cpu_cluster.cpus.statAvgFUUtilization::SimdSha256Hash2     0.000087      0.02%     45.75% # Avg utilization of FU (Count)
system.cpu_cluster.cpus.statAvgFUUtilization::SimdShaSigma2     0.000087      0.02%     45.77% # Avg utilization of FU (Count)
system.cpu_cluster.cpus.statAvgFUUtilization::SimdShaSigma3     0.000087      0.02%     45.80% # Avg utilization of FU (Count)
system.cpu_cluster.cpus.statAvgFUUtilization::SimdPredAlu     0.022373      6.06%     51.85% # Avg utilization of FU (Count)
system.cpu_cluster.cpus.statAvgFUUtilization::MemRead     0.037256     10.09%     61.94% # Avg utilization of FU (Count)
system.cpu_cluster.cpus.statAvgFUUtilization::MemWrite     0.038482     10.42%     72.36% # Avg utilization of FU (Count)
system.cpu_cluster.cpus.statAvgFUUtilization::FloatMemRead     0.037256     10.09%     82.44% # Avg utilization of FU (Count)
system.cpu_cluster.cpus.statAvgFUUtilization::FloatMemWrite     0.038482     10.42%     92.86% # Avg utilization of FU (Count)
system.cpu_cluster.cpus.statAvgFUUtilization::IprAccess     0.026379      7.14%    100.00% # Avg utilization of FU (Count)
system.cpu_cluster.cpus.statAvgFUUtilization::InstPrefetch            0      0.00%    100.00% # Avg utilization of FU (Count)
system.cpu_cluster.cpus.statFuBusyPerThreadCollective::0            7                       # Number of times instruction not issued because FU not available, per thread (Count)
system.cpu_cluster.cpus.statFuBusyPerThreadCollective::1            0                       # Number of times instruction not issued because FU not available, per thread (Count)
system.cpu_cluster.cpus.statFuBusyPerThreadCollective::total            7                       # Number of times instruction not issued because FU not available, per thread (Count)
system.cpu_cluster.cpus.statIssuedInstType_0::No_OpClass           38      0.24%      0.24% # Number of instructions issued per FU type, per thread (Count)
system.cpu_cluster.cpus.statIssuedInstType_0::IntAlu        11032     68.65%     68.88% # Number of instructions issued per FU type, per thread (Count)
system.cpu_cluster.cpus.statIssuedInstType_0::IntMult            6      0.04%     68.92% # Number of instructions issued per FU type, per thread (Count)
system.cpu_cluster.cpus.statIssuedInstType_0::IntDiv            5      0.03%     68.95% # Number of instructions issued per FU type, per thread (Count)
system.cpu_cluster.cpus.statIssuedInstType_0::FloatAdd            0      0.00%     68.95% # Number of instructions issued per FU type, per thread (Count)
system.cpu_cluster.cpus.statIssuedInstType_0::FloatCmp            0      0.00%     68.95% # Number of instructions issued per FU type, per thread (Count)
system.cpu_cluster.cpus.statIssuedInstType_0::FloatCvt            0      0.00%     68.95% # Number of instructions issued per FU type, per thread (Count)
system.cpu_cluster.cpus.statIssuedInstType_0::FloatMult            0      0.00%     68.95% # Number of instructions issued per FU type, per thread (Count)
system.cpu_cluster.cpus.statIssuedInstType_0::FloatMultAcc            0      0.00%     68.95% # Number of instructions issued per FU type, per thread (Count)
system.cpu_cluster.cpus.statIssuedInstType_0::FloatDiv            0      0.00%     68.95% # Number of instructions issued per FU type, per thread (Count)
system.cpu_cluster.cpus.statIssuedInstType_0::FloatMisc            0      0.00%     68.95% # Number of instructions issued per FU type, per thread (Count)
system.cpu_cluster.cpus.statIssuedInstType_0::FloatSqrt            0      0.00%     68.95% # Number of instructions issued per FU type, per thread (Count)
system.cpu_cluster.cpus.statIssuedInstType_0::SimdAdd           11      0.07%     69.02% # Number of instructions issued per FU type, per thread (Count)
system.cpu_cluster.cpus.statIssuedInstType_0::SimdAddAcc            0      0.00%     69.02% # Number of instructions issued per FU type, per thread (Count)
system.cpu_cluster.cpus.statIssuedInstType_0::SimdAlu            8      0.05%     69.07% # Number of instructions issued per FU type, per thread (Count)
system.cpu_cluster.cpus.statIssuedInstType_0::SimdCmp            8      0.05%     69.12% # Number of instructions issued per FU type, per thread (Count)
system.cpu_cluster.cpus.statIssuedInstType_0::SimdCvt            0      0.00%     69.12% # Number of instructions issued per FU type, per thread (Count)
system.cpu_cluster.cpus.statIssuedInstType_0::SimdMisc            9      0.06%     69.17% # Number of instructions issued per FU type, per thread (Count)
system.cpu_cluster.cpus.statIssuedInstType_0::SimdMult            0      0.00%     69.17% # Number of instructions issued per FU type, per thread (Count)
system.cpu_cluster.cpus.statIssuedInstType_0::SimdMultAcc            0      0.00%     69.17% # Number of instructions issued per FU type, per thread (Count)
system.cpu_cluster.cpus.statIssuedInstType_0::SimdShift            0      0.00%     69.17% # Number of instructions issued per FU type, per thread (Count)
system.cpu_cluster.cpus.statIssuedInstType_0::SimdShiftAcc            0      0.00%     69.17% # Number of instructions issued per FU type, per thread (Count)
system.cpu_cluster.cpus.statIssuedInstType_0::SimdDiv            0      0.00%     69.17% # Number of instructions issued per FU type, per thread (Count)
system.cpu_cluster.cpus.statIssuedInstType_0::SimdSqrt            0      0.00%     69.17% # Number of instructions issued per FU type, per thread (Count)
system.cpu_cluster.cpus.statIssuedInstType_0::SimdFloatAdd            0      0.00%     69.17% # Number of instructions issued per FU type, per thread (Count)
system.cpu_cluster.cpus.statIssuedInstType_0::SimdFloatAlu            0      0.00%     69.17% # Number of instructions issued per FU type, per thread (Count)
system.cpu_cluster.cpus.statIssuedInstType_0::SimdFloatCmp            0      0.00%     69.17% # Number of instructions issued per FU type, per thread (Count)
system.cpu_cluster.cpus.statIssuedInstType_0::SimdFloatCvt            0      0.00%     69.17% # Number of instructions issued per FU type, per thread (Count)
system.cpu_cluster.cpus.statIssuedInstType_0::SimdFloatDiv            0      0.00%     69.17% # Number of instructions issued per FU type, per thread (Count)
system.cpu_cluster.cpus.statIssuedInstType_0::SimdFloatMisc            0      0.00%     69.17% # Number of instructions issued per FU type, per thread (Count)
system.cpu_cluster.cpus.statIssuedInstType_0::SimdFloatMult            0      0.00%     69.17% # Number of instructions issued per FU type, per thread (Count)
system.cpu_cluster.cpus.statIssuedInstType_0::SimdFloatMultAcc            0      0.00%     69.17% # Number of instructions issued per FU type, per thread (Count)
system.cpu_cluster.cpus.statIssuedInstType_0::SimdFloatSqrt            0      0.00%     69.17% # Number of instructions issued per FU type, per thread (Count)
system.cpu_cluster.cpus.statIssuedInstType_0::SimdReduceAdd            0      0.00%     69.17% # Number of instructions issued per FU type, per thread (Count)
system.cpu_cluster.cpus.statIssuedInstType_0::SimdReduceAlu            0      0.00%     69.17% # Number of instructions issued per FU type, per thread (Count)
system.cpu_cluster.cpus.statIssuedInstType_0::SimdReduceCmp            0      0.00%     69.17% # Number of instructions issued per FU type, per thread (Count)
system.cpu_cluster.cpus.statIssuedInstType_0::SimdFloatReduceAdd            0      0.00%     69.17% # Number of instructions issued per FU type, per thread (Count)
system.cpu_cluster.cpus.statIssuedInstType_0::SimdFloatReduceCmp            0      0.00%     69.17% # Number of instructions issued per FU type, per thread (Count)
system.cpu_cluster.cpus.statIssuedInstType_0::SimdAes            0      0.00%     69.17% # Number of instructions issued per FU type, per thread (Count)
system.cpu_cluster.cpus.statIssuedInstType_0::SimdAesMix            0      0.00%     69.17% # Number of instructions issued per FU type, per thread (Count)
system.cpu_cluster.cpus.statIssuedInstType_0::SimdSha1Hash            0      0.00%     69.17% # Number of instructions issued per FU type, per thread (Count)
system.cpu_cluster.cpus.statIssuedInstType_0::SimdSha1Hash2            0      0.00%     69.17% # Number of instructions issued per FU type, per thread (Count)
system.cpu_cluster.cpus.statIssuedInstType_0::SimdSha256Hash            0      0.00%     69.17% # Number of instructions issued per FU type, per thread (Count)
system.cpu_cluster.cpus.statIssuedInstType_0::SimdSha256Hash2            0      0.00%     69.17% # Number of instructions issued per FU type, per thread (Count)
system.cpu_cluster.cpus.statIssuedInstType_0::SimdShaSigma2            0      0.00%     69.17% # Number of instructions issued per FU type, per thread (Count)
system.cpu_cluster.cpus.statIssuedInstType_0::SimdShaSigma3            0      0.00%     69.17% # Number of instructions issued per FU type, per thread (Count)
system.cpu_cluster.cpus.statIssuedInstType_0::SimdPredAlu            0      0.00%     69.17% # Number of instructions issued per FU type, per thread (Count)
system.cpu_cluster.cpus.statIssuedInstType_0::MemRead         2747     17.09%     86.27% # Number of instructions issued per FU type, per thread (Count)
system.cpu_cluster.cpus.statIssuedInstType_0::MemWrite         2207     13.73%    100.00% # Number of instructions issued per FU type, per thread (Count)
system.cpu_cluster.cpus.statIssuedInstType_0::FloatMemRead            0      0.00%    100.00% # Number of instructions issued per FU type, per thread (Count)
system.cpu_cluster.cpus.statIssuedInstType_0::FloatMemWrite            0      0.00%    100.00% # Number of instructions issued per FU type, per thread (Count)
system.cpu_cluster.cpus.statIssuedInstType_0::IprAccess            0      0.00%    100.00% # Number of instructions issued per FU type, per thread (Count)
system.cpu_cluster.cpus.statIssuedInstType_0::InstPrefetch            0      0.00%    100.00% # Number of instructions issued per FU type, per thread (Count)
system.cpu_cluster.cpus.statIssuedInstType_0::total        16071                       # Number of instructions issued per FU type, per thread (Count)
system.cpu_cluster.cpus.statIssuedInstType_1::No_OpClass            0                       # Number of instructions issued per FU type, per thread (Count)
system.cpu_cluster.cpus.statIssuedInstType_1::IntAlu            0                       # Number of instructions issued per FU type, per thread (Count)
system.cpu_cluster.cpus.statIssuedInstType_1::IntMult            0                       # Number of instructions issued per FU type, per thread (Count)
system.cpu_cluster.cpus.statIssuedInstType_1::IntDiv            0                       # Number of instructions issued per FU type, per thread (Count)
system.cpu_cluster.cpus.statIssuedInstType_1::FloatAdd            0                       # Number of instructions issued per FU type, per thread (Count)
system.cpu_cluster.cpus.statIssuedInstType_1::FloatCmp            0                       # Number of instructions issued per FU type, per thread (Count)
system.cpu_cluster.cpus.statIssuedInstType_1::FloatCvt            0                       # Number of instructions issued per FU type, per thread (Count)
system.cpu_cluster.cpus.statIssuedInstType_1::FloatMult            0                       # Number of instructions issued per FU type, per thread (Count)
system.cpu_cluster.cpus.statIssuedInstType_1::FloatMultAcc            0                       # Number of instructions issued per FU type, per thread (Count)
system.cpu_cluster.cpus.statIssuedInstType_1::FloatDiv            0                       # Number of instructions issued per FU type, per thread (Count)
system.cpu_cluster.cpus.statIssuedInstType_1::FloatMisc            0                       # Number of instructions issued per FU type, per thread (Count)
system.cpu_cluster.cpus.statIssuedInstType_1::FloatSqrt            0                       # Number of instructions issued per FU type, per thread (Count)
system.cpu_cluster.cpus.statIssuedInstType_1::SimdAdd            0                       # Number of instructions issued per FU type, per thread (Count)
system.cpu_cluster.cpus.statIssuedInstType_1::SimdAddAcc            0                       # Number of instructions issued per FU type, per thread (Count)
system.cpu_cluster.cpus.statIssuedInstType_1::SimdAlu            0                       # Number of instructions issued per FU type, per thread (Count)
system.cpu_cluster.cpus.statIssuedInstType_1::SimdCmp            0                       # Number of instructions issued per FU type, per thread (Count)
system.cpu_cluster.cpus.statIssuedInstType_1::SimdCvt            0                       # Number of instructions issued per FU type, per thread (Count)
system.cpu_cluster.cpus.statIssuedInstType_1::SimdMisc            0                       # Number of instructions issued per FU type, per thread (Count)
system.cpu_cluster.cpus.statIssuedInstType_1::SimdMult            0                       # Number of instructions issued per FU type, per thread (Count)
system.cpu_cluster.cpus.statIssuedInstType_1::SimdMultAcc            0                       # Number of instructions issued per FU type, per thread (Count)
system.cpu_cluster.cpus.statIssuedInstType_1::SimdShift            0                       # Number of instructions issued per FU type, per thread (Count)
system.cpu_cluster.cpus.statIssuedInstType_1::SimdShiftAcc            0                       # Number of instructions issued per FU type, per thread (Count)
system.cpu_cluster.cpus.statIssuedInstType_1::SimdDiv            0                       # Number of instructions issued per FU type, per thread (Count)
system.cpu_cluster.cpus.statIssuedInstType_1::SimdSqrt            0                       # Number of instructions issued per FU type, per thread (Count)
system.cpu_cluster.cpus.statIssuedInstType_1::SimdFloatAdd            0                       # Number of instructions issued per FU type, per thread (Count)
system.cpu_cluster.cpus.statIssuedInstType_1::SimdFloatAlu            0                       # Number of instructions issued per FU type, per thread (Count)
system.cpu_cluster.cpus.statIssuedInstType_1::SimdFloatCmp            0                       # Number of instructions issued per FU type, per thread (Count)
system.cpu_cluster.cpus.statIssuedInstType_1::SimdFloatCvt            0                       # Number of instructions issued per FU type, per thread (Count)
system.cpu_cluster.cpus.statIssuedInstType_1::SimdFloatDiv            0                       # Number of instructions issued per FU type, per thread (Count)
system.cpu_cluster.cpus.statIssuedInstType_1::SimdFloatMisc            0                       # Number of instructions issued per FU type, per thread (Count)
system.cpu_cluster.cpus.statIssuedInstType_1::SimdFloatMult            0                       # Number of instructions issued per FU type, per thread (Count)
system.cpu_cluster.cpus.statIssuedInstType_1::SimdFloatMultAcc            0                       # Number of instructions issued per FU type, per thread (Count)
system.cpu_cluster.cpus.statIssuedInstType_1::SimdFloatSqrt            0                       # Number of instructions issued per FU type, per thread (Count)
system.cpu_cluster.cpus.statIssuedInstType_1::SimdReduceAdd            0                       # Number of instructions issued per FU type, per thread (Count)
system.cpu_cluster.cpus.statIssuedInstType_1::SimdReduceAlu            0                       # Number of instructions issued per FU type, per thread (Count)
system.cpu_cluster.cpus.statIssuedInstType_1::SimdReduceCmp            0                       # Number of instructions issued per FU type, per thread (Count)
system.cpu_cluster.cpus.statIssuedInstType_1::SimdFloatReduceAdd            0                       # Number of instructions issued per FU type, per thread (Count)
system.cpu_cluster.cpus.statIssuedInstType_1::SimdFloatReduceCmp            0                       # Number of instructions issued per FU type, per thread (Count)
system.cpu_cluster.cpus.statIssuedInstType_1::SimdAes            0                       # Number of instructions issued per FU type, per thread (Count)
system.cpu_cluster.cpus.statIssuedInstType_1::SimdAesMix            0                       # Number of instructions issued per FU type, per thread (Count)
system.cpu_cluster.cpus.statIssuedInstType_1::SimdSha1Hash            0                       # Number of instructions issued per FU type, per thread (Count)
system.cpu_cluster.cpus.statIssuedInstType_1::SimdSha1Hash2            0                       # Number of instructions issued per FU type, per thread (Count)
system.cpu_cluster.cpus.statIssuedInstType_1::SimdSha256Hash            0                       # Number of instructions issued per FU type, per thread (Count)
system.cpu_cluster.cpus.statIssuedInstType_1::SimdSha256Hash2            0                       # Number of instructions issued per FU type, per thread (Count)
system.cpu_cluster.cpus.statIssuedInstType_1::SimdShaSigma2            0                       # Number of instructions issued per FU type, per thread (Count)
system.cpu_cluster.cpus.statIssuedInstType_1::SimdShaSigma3            0                       # Number of instructions issued per FU type, per thread (Count)
system.cpu_cluster.cpus.statIssuedInstType_1::SimdPredAlu            0                       # Number of instructions issued per FU type, per thread (Count)
system.cpu_cluster.cpus.statIssuedInstType_1::MemRead            0                       # Number of instructions issued per FU type, per thread (Count)
system.cpu_cluster.cpus.statIssuedInstType_1::MemWrite            0                       # Number of instructions issued per FU type, per thread (Count)
system.cpu_cluster.cpus.statIssuedInstType_1::FloatMemRead            0                       # Number of instructions issued per FU type, per thread (Count)
system.cpu_cluster.cpus.statIssuedInstType_1::FloatMemWrite            0                       # Number of instructions issued per FU type, per thread (Count)
system.cpu_cluster.cpus.statIssuedInstType_1::IprAccess            0                       # Number of instructions issued per FU type, per thread (Count)
system.cpu_cluster.cpus.statIssuedInstType_1::InstPrefetch            0                       # Number of instructions issued per FU type, per thread (Count)
system.cpu_cluster.cpus.statIssuedInstType_1::total            0                       # Number of instructions issued per FU type, per thread (Count)
system.cpu_cluster.cpus.statIssuedInstType::total        16071      0.00%      0.00% # Number of instructions issued per FU type, per thread (Count)
system.cpu_cluster.cpus.statFuBusyPerThread_0::No_OpClass            0      0.00%      0.00% # Number of instructions structural stalls per FU type, per thread (Count)
system.cpu_cluster.cpus.statFuBusyPerThread_0::IntAlu            0      0.00%      0.00% # Number of instructions structural stalls per FU type, per thread (Count)
system.cpu_cluster.cpus.statFuBusyPerThread_0::IntMult            0      0.00%      0.00% # Number of instructions structural stalls per FU type, per thread (Count)
system.cpu_cluster.cpus.statFuBusyPerThread_0::IntDiv            0      0.00%      0.00% # Number of instructions structural stalls per FU type, per thread (Count)
system.cpu_cluster.cpus.statFuBusyPerThread_0::FloatAdd            0      0.00%      0.00% # Number of instructions structural stalls per FU type, per thread (Count)
system.cpu_cluster.cpus.statFuBusyPerThread_0::FloatCmp            0      0.00%      0.00% # Number of instructions structural stalls per FU type, per thread (Count)
system.cpu_cluster.cpus.statFuBusyPerThread_0::FloatCvt            0      0.00%      0.00% # Number of instructions structural stalls per FU type, per thread (Count)
system.cpu_cluster.cpus.statFuBusyPerThread_0::FloatMult            0      0.00%      0.00% # Number of instructions structural stalls per FU type, per thread (Count)
system.cpu_cluster.cpus.statFuBusyPerThread_0::FloatMultAcc            0      0.00%      0.00% # Number of instructions structural stalls per FU type, per thread (Count)
system.cpu_cluster.cpus.statFuBusyPerThread_0::FloatDiv            0      0.00%      0.00% # Number of instructions structural stalls per FU type, per thread (Count)
system.cpu_cluster.cpus.statFuBusyPerThread_0::FloatMisc            0      0.00%      0.00% # Number of instructions structural stalls per FU type, per thread (Count)
system.cpu_cluster.cpus.statFuBusyPerThread_0::FloatSqrt            0      0.00%      0.00% # Number of instructions structural stalls per FU type, per thread (Count)
system.cpu_cluster.cpus.statFuBusyPerThread_0::SimdAdd            0      0.00%      0.00% # Number of instructions structural stalls per FU type, per thread (Count)
system.cpu_cluster.cpus.statFuBusyPerThread_0::SimdAddAcc            0      0.00%      0.00% # Number of instructions structural stalls per FU type, per thread (Count)
system.cpu_cluster.cpus.statFuBusyPerThread_0::SimdAlu            0      0.00%      0.00% # Number of instructions structural stalls per FU type, per thread (Count)
system.cpu_cluster.cpus.statFuBusyPerThread_0::SimdCmp            0      0.00%      0.00% # Number of instructions structural stalls per FU type, per thread (Count)
system.cpu_cluster.cpus.statFuBusyPerThread_0::SimdCvt            0      0.00%      0.00% # Number of instructions structural stalls per FU type, per thread (Count)
system.cpu_cluster.cpus.statFuBusyPerThread_0::SimdMisc            0      0.00%      0.00% # Number of instructions structural stalls per FU type, per thread (Count)
system.cpu_cluster.cpus.statFuBusyPerThread_0::SimdMult            0      0.00%      0.00% # Number of instructions structural stalls per FU type, per thread (Count)
system.cpu_cluster.cpus.statFuBusyPerThread_0::SimdMultAcc            0      0.00%      0.00% # Number of instructions structural stalls per FU type, per thread (Count)
system.cpu_cluster.cpus.statFuBusyPerThread_0::SimdShift            0      0.00%      0.00% # Number of instructions structural stalls per FU type, per thread (Count)
system.cpu_cluster.cpus.statFuBusyPerThread_0::SimdShiftAcc            0      0.00%      0.00% # Number of instructions structural stalls per FU type, per thread (Count)
system.cpu_cluster.cpus.statFuBusyPerThread_0::SimdDiv            0      0.00%      0.00% # Number of instructions structural stalls per FU type, per thread (Count)
system.cpu_cluster.cpus.statFuBusyPerThread_0::SimdSqrt            0      0.00%      0.00% # Number of instructions structural stalls per FU type, per thread (Count)
system.cpu_cluster.cpus.statFuBusyPerThread_0::SimdFloatAdd            0      0.00%      0.00% # Number of instructions structural stalls per FU type, per thread (Count)
system.cpu_cluster.cpus.statFuBusyPerThread_0::SimdFloatAlu            0      0.00%      0.00% # Number of instructions structural stalls per FU type, per thread (Count)
system.cpu_cluster.cpus.statFuBusyPerThread_0::SimdFloatCmp            0      0.00%      0.00% # Number of instructions structural stalls per FU type, per thread (Count)
system.cpu_cluster.cpus.statFuBusyPerThread_0::SimdFloatCvt            0      0.00%      0.00% # Number of instructions structural stalls per FU type, per thread (Count)
system.cpu_cluster.cpus.statFuBusyPerThread_0::SimdFloatDiv            0      0.00%      0.00% # Number of instructions structural stalls per FU type, per thread (Count)
system.cpu_cluster.cpus.statFuBusyPerThread_0::SimdFloatMisc            0      0.00%      0.00% # Number of instructions structural stalls per FU type, per thread (Count)
system.cpu_cluster.cpus.statFuBusyPerThread_0::SimdFloatMult            0      0.00%      0.00% # Number of instructions structural stalls per FU type, per thread (Count)
system.cpu_cluster.cpus.statFuBusyPerThread_0::SimdFloatMultAcc            0      0.00%      0.00% # Number of instructions structural stalls per FU type, per thread (Count)
system.cpu_cluster.cpus.statFuBusyPerThread_0::SimdFloatSqrt            0      0.00%      0.00% # Number of instructions structural stalls per FU type, per thread (Count)
system.cpu_cluster.cpus.statFuBusyPerThread_0::SimdReduceAdd            0      0.00%      0.00% # Number of instructions structural stalls per FU type, per thread (Count)
system.cpu_cluster.cpus.statFuBusyPerThread_0::SimdReduceAlu            0      0.00%      0.00% # Number of instructions structural stalls per FU type, per thread (Count)
system.cpu_cluster.cpus.statFuBusyPerThread_0::SimdReduceCmp            0      0.00%      0.00% # Number of instructions structural stalls per FU type, per thread (Count)
system.cpu_cluster.cpus.statFuBusyPerThread_0::SimdFloatReduceAdd            0      0.00%      0.00% # Number of instructions structural stalls per FU type, per thread (Count)
system.cpu_cluster.cpus.statFuBusyPerThread_0::SimdFloatReduceCmp            0      0.00%      0.00% # Number of instructions structural stalls per FU type, per thread (Count)
system.cpu_cluster.cpus.statFuBusyPerThread_0::SimdAes            0      0.00%      0.00% # Number of instructions structural stalls per FU type, per thread (Count)
system.cpu_cluster.cpus.statFuBusyPerThread_0::SimdAesMix            0      0.00%      0.00% # Number of instructions structural stalls per FU type, per thread (Count)
system.cpu_cluster.cpus.statFuBusyPerThread_0::SimdSha1Hash            0      0.00%      0.00% # Number of instructions structural stalls per FU type, per thread (Count)
system.cpu_cluster.cpus.statFuBusyPerThread_0::SimdSha1Hash2            0      0.00%      0.00% # Number of instructions structural stalls per FU type, per thread (Count)
system.cpu_cluster.cpus.statFuBusyPerThread_0::SimdSha256Hash            0      0.00%      0.00% # Number of instructions structural stalls per FU type, per thread (Count)
system.cpu_cluster.cpus.statFuBusyPerThread_0::SimdSha256Hash2            0      0.00%      0.00% # Number of instructions structural stalls per FU type, per thread (Count)
system.cpu_cluster.cpus.statFuBusyPerThread_0::SimdShaSigma2            0      0.00%      0.00% # Number of instructions structural stalls per FU type, per thread (Count)
system.cpu_cluster.cpus.statFuBusyPerThread_0::SimdShaSigma3            0      0.00%      0.00% # Number of instructions structural stalls per FU type, per thread (Count)
system.cpu_cluster.cpus.statFuBusyPerThread_0::SimdPredAlu            0      0.00%      0.00% # Number of instructions structural stalls per FU type, per thread (Count)
system.cpu_cluster.cpus.statFuBusyPerThread_0::MemRead            7    100.00%    100.00% # Number of instructions structural stalls per FU type, per thread (Count)
system.cpu_cluster.cpus.statFuBusyPerThread_0::MemWrite            0      0.00%    100.00% # Number of instructions structural stalls per FU type, per thread (Count)
system.cpu_cluster.cpus.statFuBusyPerThread_0::FloatMemRead            0      0.00%    100.00% # Number of instructions structural stalls per FU type, per thread (Count)
system.cpu_cluster.cpus.statFuBusyPerThread_0::FloatMemWrite            0      0.00%    100.00% # Number of instructions structural stalls per FU type, per thread (Count)
system.cpu_cluster.cpus.statFuBusyPerThread_0::IprAccess            0      0.00%    100.00% # Number of instructions structural stalls per FU type, per thread (Count)
system.cpu_cluster.cpus.statFuBusyPerThread_0::InstPrefetch            0      0.00%    100.00% # Number of instructions structural stalls per FU type, per thread (Count)
system.cpu_cluster.cpus.statFuBusyPerThread_0::total            7                       # Number of instructions structural stalls per FU type, per thread (Count)
system.cpu_cluster.cpus.statFuBusyPerThread_1::No_OpClass            0                       # Number of instructions structural stalls per FU type, per thread (Count)
system.cpu_cluster.cpus.statFuBusyPerThread_1::IntAlu            0                       # Number of instructions structural stalls per FU type, per thread (Count)
system.cpu_cluster.cpus.statFuBusyPerThread_1::IntMult            0                       # Number of instructions structural stalls per FU type, per thread (Count)
system.cpu_cluster.cpus.statFuBusyPerThread_1::IntDiv            0                       # Number of instructions structural stalls per FU type, per thread (Count)
system.cpu_cluster.cpus.statFuBusyPerThread_1::FloatAdd            0                       # Number of instructions structural stalls per FU type, per thread (Count)
system.cpu_cluster.cpus.statFuBusyPerThread_1::FloatCmp            0                       # Number of instructions structural stalls per FU type, per thread (Count)
system.cpu_cluster.cpus.statFuBusyPerThread_1::FloatCvt            0                       # Number of instructions structural stalls per FU type, per thread (Count)
system.cpu_cluster.cpus.statFuBusyPerThread_1::FloatMult            0                       # Number of instructions structural stalls per FU type, per thread (Count)
system.cpu_cluster.cpus.statFuBusyPerThread_1::FloatMultAcc            0                       # Number of instructions structural stalls per FU type, per thread (Count)
system.cpu_cluster.cpus.statFuBusyPerThread_1::FloatDiv            0                       # Number of instructions structural stalls per FU type, per thread (Count)
system.cpu_cluster.cpus.statFuBusyPerThread_1::FloatMisc            0                       # Number of instructions structural stalls per FU type, per thread (Count)
system.cpu_cluster.cpus.statFuBusyPerThread_1::FloatSqrt            0                       # Number of instructions structural stalls per FU type, per thread (Count)
system.cpu_cluster.cpus.statFuBusyPerThread_1::SimdAdd            0                       # Number of instructions structural stalls per FU type, per thread (Count)
system.cpu_cluster.cpus.statFuBusyPerThread_1::SimdAddAcc            0                       # Number of instructions structural stalls per FU type, per thread (Count)
system.cpu_cluster.cpus.statFuBusyPerThread_1::SimdAlu            0                       # Number of instructions structural stalls per FU type, per thread (Count)
system.cpu_cluster.cpus.statFuBusyPerThread_1::SimdCmp            0                       # Number of instructions structural stalls per FU type, per thread (Count)
system.cpu_cluster.cpus.statFuBusyPerThread_1::SimdCvt            0                       # Number of instructions structural stalls per FU type, per thread (Count)
system.cpu_cluster.cpus.statFuBusyPerThread_1::SimdMisc            0                       # Number of instructions structural stalls per FU type, per thread (Count)
system.cpu_cluster.cpus.statFuBusyPerThread_1::SimdMult            0                       # Number of instructions structural stalls per FU type, per thread (Count)
system.cpu_cluster.cpus.statFuBusyPerThread_1::SimdMultAcc            0                       # Number of instructions structural stalls per FU type, per thread (Count)
system.cpu_cluster.cpus.statFuBusyPerThread_1::SimdShift            0                       # Number of instructions structural stalls per FU type, per thread (Count)
system.cpu_cluster.cpus.statFuBusyPerThread_1::SimdShiftAcc            0                       # Number of instructions structural stalls per FU type, per thread (Count)
system.cpu_cluster.cpus.statFuBusyPerThread_1::SimdDiv            0                       # Number of instructions structural stalls per FU type, per thread (Count)
system.cpu_cluster.cpus.statFuBusyPerThread_1::SimdSqrt            0                       # Number of instructions structural stalls per FU type, per thread (Count)
system.cpu_cluster.cpus.statFuBusyPerThread_1::SimdFloatAdd            0                       # Number of instructions structural stalls per FU type, per thread (Count)
system.cpu_cluster.cpus.statFuBusyPerThread_1::SimdFloatAlu            0                       # Number of instructions structural stalls per FU type, per thread (Count)
system.cpu_cluster.cpus.statFuBusyPerThread_1::SimdFloatCmp            0                       # Number of instructions structural stalls per FU type, per thread (Count)
system.cpu_cluster.cpus.statFuBusyPerThread_1::SimdFloatCvt            0                       # Number of instructions structural stalls per FU type, per thread (Count)
system.cpu_cluster.cpus.statFuBusyPerThread_1::SimdFloatDiv            0                       # Number of instructions structural stalls per FU type, per thread (Count)
system.cpu_cluster.cpus.statFuBusyPerThread_1::SimdFloatMisc            0                       # Number of instructions structural stalls per FU type, per thread (Count)
system.cpu_cluster.cpus.statFuBusyPerThread_1::SimdFloatMult            0                       # Number of instructions structural stalls per FU type, per thread (Count)
system.cpu_cluster.cpus.statFuBusyPerThread_1::SimdFloatMultAcc            0                       # Number of instructions structural stalls per FU type, per thread (Count)
system.cpu_cluster.cpus.statFuBusyPerThread_1::SimdFloatSqrt            0                       # Number of instructions structural stalls per FU type, per thread (Count)
system.cpu_cluster.cpus.statFuBusyPerThread_1::SimdReduceAdd            0                       # Number of instructions structural stalls per FU type, per thread (Count)
system.cpu_cluster.cpus.statFuBusyPerThread_1::SimdReduceAlu            0                       # Number of instructions structural stalls per FU type, per thread (Count)
system.cpu_cluster.cpus.statFuBusyPerThread_1::SimdReduceCmp            0                       # Number of instructions structural stalls per FU type, per thread (Count)
system.cpu_cluster.cpus.statFuBusyPerThread_1::SimdFloatReduceAdd            0                       # Number of instructions structural stalls per FU type, per thread (Count)
system.cpu_cluster.cpus.statFuBusyPerThread_1::SimdFloatReduceCmp            0                       # Number of instructions structural stalls per FU type, per thread (Count)
system.cpu_cluster.cpus.statFuBusyPerThread_1::SimdAes            0                       # Number of instructions structural stalls per FU type, per thread (Count)
system.cpu_cluster.cpus.statFuBusyPerThread_1::SimdAesMix            0                       # Number of instructions structural stalls per FU type, per thread (Count)
system.cpu_cluster.cpus.statFuBusyPerThread_1::SimdSha1Hash            0                       # Number of instructions structural stalls per FU type, per thread (Count)
system.cpu_cluster.cpus.statFuBusyPerThread_1::SimdSha1Hash2            0                       # Number of instructions structural stalls per FU type, per thread (Count)
system.cpu_cluster.cpus.statFuBusyPerThread_1::SimdSha256Hash            0                       # Number of instructions structural stalls per FU type, per thread (Count)
system.cpu_cluster.cpus.statFuBusyPerThread_1::SimdSha256Hash2            0                       # Number of instructions structural stalls per FU type, per thread (Count)
system.cpu_cluster.cpus.statFuBusyPerThread_1::SimdShaSigma2            0                       # Number of instructions structural stalls per FU type, per thread (Count)
system.cpu_cluster.cpus.statFuBusyPerThread_1::SimdShaSigma3            0                       # Number of instructions structural stalls per FU type, per thread (Count)
system.cpu_cluster.cpus.statFuBusyPerThread_1::SimdPredAlu            0                       # Number of instructions structural stalls per FU type, per thread (Count)
system.cpu_cluster.cpus.statFuBusyPerThread_1::MemRead            0                       # Number of instructions structural stalls per FU type, per thread (Count)
system.cpu_cluster.cpus.statFuBusyPerThread_1::MemWrite            0                       # Number of instructions structural stalls per FU type, per thread (Count)
system.cpu_cluster.cpus.statFuBusyPerThread_1::FloatMemRead            0                       # Number of instructions structural stalls per FU type, per thread (Count)
system.cpu_cluster.cpus.statFuBusyPerThread_1::FloatMemWrite            0                       # Number of instructions structural stalls per FU type, per thread (Count)
system.cpu_cluster.cpus.statFuBusyPerThread_1::IprAccess            0                       # Number of instructions structural stalls per FU type, per thread (Count)
system.cpu_cluster.cpus.statFuBusyPerThread_1::InstPrefetch            0                       # Number of instructions structural stalls per FU type, per thread (Count)
system.cpu_cluster.cpus.statFuBusyPerThread_1::total            0                       # Number of instructions structural stalls per FU type, per thread (Count)
system.cpu_cluster.cpus.statFuBusyPerThread::total            7      0.00%      0.00% # Number of instructions structural stalls per FU type, per thread (Count)
system.cpu_cluster.cpus.statOlderROBNotIssuedPerThread::0            0                       # Number of times instruction not issued because older ROB instruction not issued, per thread (Count)
system.cpu_cluster.cpus.statOlderROBNotIssuedPerThread::1            0                       # Number of times instruction not issued because older ROB instruction not issued, per thread (Count)
system.cpu_cluster.cpus.statOlderROBNotIssuedPerThread::total            0                       # Number of times instruction not issued because older ROB instruction not issued, per thread (Count)
system.cpu_cluster.cpus.statOlderROBNotIssuedPerThreadRate::0            0                       # Number of times instruction not issued because older ROB instruction not issued, per thread rate (busy events/executed inst) (Count)
system.cpu_cluster.cpus.statOlderROBNotIssuedPerThreadRate::1            0                       # Number of times instruction not issued because older ROB instruction not issued, per thread rate (busy events/executed inst) (Count)
system.cpu_cluster.cpus.statStalledOnControlInstructionPerThread::0            0                       # Number of times instruction not issued because older control instruction not completed, per thread (Count)
system.cpu_cluster.cpus.statStalledOnControlInstructionPerThread::1            0                       # Number of times instruction not issued because older control instruction not completed, per thread (Count)
system.cpu_cluster.cpus.statStalledOnControlInstructionPerThread::total            0                       # Number of times instruction not issued because older control instruction not completed, per thread (Count)
system.cpu_cluster.cpus.statStalledOnControlInstructionPerThreadRate::0            0                       # Number of times instruction not issued because older control instruction not completed, per thread rate (busy events/executed inst) (Count)
system.cpu_cluster.cpus.statStalledOnControlInstructionPerThreadRate::1            0                       # Number of times instruction not issued because older control instruction not completed, per thread rate (busy events/executed inst) (Count)
system.cpu_cluster.cpus.statStalledOnMemoryReorderPerThread::0            0                       # Number of times instruction not issued because older memory instruction not completed, per thread (Count)
system.cpu_cluster.cpus.statStalledOnMemoryReorderPerThread::1            0                       # Number of times instruction not issued because older memory instruction not completed, per thread (Count)
system.cpu_cluster.cpus.statStalledOnMemoryReorderPerThread::total            0                       # Number of times instruction not issued because older memory instruction not completed, per thread (Count)
system.cpu_cluster.cpus.statStalledOnMemoryReorderPerThreadRate::0            0                       # Number of times instruction not issued because older memory instruction not completed, per thread rate (busy events/executed inst) (Count)
system.cpu_cluster.cpus.statStalledOnMemoryReorderPerThreadRate::1            0                       # Number of times instruction not issued because older memory instruction not completed, per thread rate (busy events/executed inst) (Count)
system.cpu_cluster.cpus.statStalledNotOldestInIQPerThread::0            0                       # Number of times instruction not issued because older IQ instruction not issued, per thread (Count)
system.cpu_cluster.cpus.statStalledNotOldestInIQPerThread::1            0                       # Number of times instruction not issued because older IQ instruction not issued, per thread (Count)
system.cpu_cluster.cpus.statStalledNotOldestInIQPerThread::total            0                       # Number of times instruction not issued because older IQ instruction not issued, per thread (Count)
system.cpu_cluster.cpus.statStalledNotOldestInIQPerThreadRate::0            0                       # Number of times instruction not issued because older IQ instruction not issued, per thread rate (busy events/executed inst) (Count)
system.cpu_cluster.cpus.statStalledNotOldestInIQPerThreadRate::1            0                       # Number of times instruction not issued because older IQ instruction not issued, per thread rate (busy events/executed inst) (Count)
system.cpu_cluster.cpus.statNumCheckIssuePerThread::0        16078                       # Number of times we tried to issue instructions (Count)
system.cpu_cluster.cpus.statNumCheckIssuePerThread::1            0                       # Number of times we tried to issue instructions (Count)
system.cpu_cluster.cpus.statNumCheckIssuePerThread::total        16078                       # Number of times we tried to issue instructions (Count)
system.cpu_cluster.cpus.statNumIssueNotPossiblePerThread::0            7                       # Number of times issue not possible (Count)
system.cpu_cluster.cpus.statNumIssueNotPossiblePerThread::1            0                       # Number of times issue not possible (Count)
system.cpu_cluster.cpus.statNumIssueNotPossiblePerThread::total            7                       # Number of times issue not possible (Count)
system.cpu_cluster.cpus.issueRate            0.155115                       # Inst issue rate ((Count/Cycle))
system.cpu_cluster.cpus.fuBusy::0                   7                       # FU busy when requested (Count)
system.cpu_cluster.cpus.fuBusy::1                   0                       # FU busy when requested (Count)
system.cpu_cluster.cpus.fuBusy::total               7                       # FU busy when requested (Count)
system.cpu_cluster.cpus.TotalInstIssued::0        16071                       # Number of instructions issued (Count)
system.cpu_cluster.cpus.TotalInstIssued::1            0                       # Number of instructions issued (Count)
system.cpu_cluster.cpus.TotalInstIssued::total        16071                       # Number of instructions issued (Count)
system.cpu_cluster.cpus.TotalOoOInstIssued::0         8113                       # Number of instructions issued OoO (Count)
system.cpu_cluster.cpus.TotalOoOInstIssued::1            0                       # Number of instructions issued OoO (Count)
system.cpu_cluster.cpus.TotalOoOInstIssued::total         8113                       # Number of instructions issued OoO (Count)
system.cpu_cluster.cpus.fuBusyRate::0        0.000436                       # FU busy rate (busy events/executed inst) ((Count/Count))
system.cpu_cluster.cpus.fuBusyRate::1               0                       # FU busy rate (busy events/executed inst) ((Count/Count))
system.cpu_cluster.cpus.fuBusyRate::total     0.000436                       # FU busy rate (busy events/executed inst) ((Count/Count))
system.cpu_cluster.cpus.TimeSpentWaitingOnMem::0        53891                       # Time spent by instructions waiting on memory (Count)
system.cpu_cluster.cpus.TimeSpentWaitingOnMem::1            0                       # Time spent by instructions waiting on memory (Count)
system.cpu_cluster.cpus.TimeSpentWaitingOnMem::total        53891                       # Time spent by instructions waiting on memory (Count)
system.cpu_cluster.cpus.AverageInstinIQ::0     2.150691                       # Average insts in IQ for each tid (Count)
system.cpu_cluster.cpus.AverageInstinIQ::1            0                       # Average insts in IQ for each tid (Count)
system.cpu_cluster.cpus.AverageInstinIQ::total     2.150691                       # Average insts in IQ for each tid (Count)
system.cpu_cluster.cpus.AverageNonIssuedInstPerThread::0     1.296393                       # Avg number of instructions which cannot be issued (Count)
system.cpu_cluster.cpus.AverageNonIssuedInstPerThread::1            0                       # Avg number of instructions which cannot be issued (Count)
system.cpu_cluster.cpus.AverageNonIssuedInstPerThread::total     1.296393                       # Avg number of instructions which cannot be issued (Count)
system.cpu_cluster.cpus.AverageIssuedInstPerThread::0     0.421157                       # Avg number of instructions which are in flight and issued (Count)
system.cpu_cluster.cpus.AverageIssuedInstPerThread::1            0                       # Avg number of instructions which are in flight and issued (Count)
system.cpu_cluster.cpus.AverageIssuedInstPerThread::total     0.421157                       # Avg number of instructions which are in flight and issued (Count)
system.cpu_cluster.cpus.AverageInstsThread::0     5.019170                       # Avg number of instructions which are in flight+non issued (Count)
system.cpu_cluster.cpus.AverageInstsThread::1            0                       # Avg number of instructions which are in flight+non issued (Count)
system.cpu_cluster.cpus.AverageInstsThread::total     5.019170                       # Avg number of instructions which are in flight+non issued (Count)
system.cpu_cluster.cpus.AverageNonIssuedInstPerThreadDependsOnMemory::0     0.614297                       # Avg number of instructions which cannot be issued which depenend on Memory (Count)
system.cpu_cluster.cpus.AverageNonIssuedInstPerThreadDependsOnMemory::1            0                       # Avg number of instructions which cannot be issued which depenend on Memory (Count)
system.cpu_cluster.cpus.AverageNonIssuedInstPerThreadDependsOnMemory::total     0.614297                       # Avg number of instructions which cannot be issued which depenend on Memory (Count)
system.cpu_cluster.cpus.AverageNonIssuedInstPerThreadDependsOnCompute::0     0.574588                       # Avg number of instructions which cannot be issued which depenend on Compute (Count)
system.cpu_cluster.cpus.AverageNonIssuedInstPerThreadDependsOnCompute::1            0                       # Avg number of instructions which cannot be issued which depenend on Compute (Count)
system.cpu_cluster.cpus.AverageNonIssuedInstPerThreadDependsOnCompute::total     0.574588                       # Avg number of instructions which cannot be issued which depenend on Compute (Count)
system.cpu_cluster.cpus.AverageNonIssuedInstPerThreadDependsOnTotal::0     1.167710                       # Avg number of instructions which cannot be issued with total # dependencies (Count)
system.cpu_cluster.cpus.AverageNonIssuedInstPerThreadDependsOnTotal::1            0                       # Avg number of instructions which cannot be issued with total # dependencies (Count)
system.cpu_cluster.cpus.AverageNonIssuedInstPerThreadDependsOnTotal::total     1.167710                       # Avg number of instructions which cannot be issued with total # dependencies (Count)
system.cpu_cluster.cpus.AverageNonIssuedInstPerOpType::No_OpClass            0                       # Avg number of instructions which cannot be issued (Count)
system.cpu_cluster.cpus.AverageNonIssuedInstPerOpType::IntAlu            0                       # Avg number of instructions which cannot be issued (Count)
system.cpu_cluster.cpus.AverageNonIssuedInstPerOpType::IntMult            0                       # Avg number of instructions which cannot be issued (Count)
system.cpu_cluster.cpus.AverageNonIssuedInstPerOpType::IntDiv            0                       # Avg number of instructions which cannot be issued (Count)
system.cpu_cluster.cpus.AverageNonIssuedInstPerOpType::FloatAdd            0                       # Avg number of instructions which cannot be issued (Count)
system.cpu_cluster.cpus.AverageNonIssuedInstPerOpType::FloatCmp            0                       # Avg number of instructions which cannot be issued (Count)
system.cpu_cluster.cpus.AverageNonIssuedInstPerOpType::FloatCvt            0                       # Avg number of instructions which cannot be issued (Count)
system.cpu_cluster.cpus.AverageNonIssuedInstPerOpType::FloatMult            0                       # Avg number of instructions which cannot be issued (Count)
system.cpu_cluster.cpus.AverageNonIssuedInstPerOpType::FloatMultAcc            0                       # Avg number of instructions which cannot be issued (Count)
system.cpu_cluster.cpus.AverageNonIssuedInstPerOpType::FloatDiv            0                       # Avg number of instructions which cannot be issued (Count)
system.cpu_cluster.cpus.AverageNonIssuedInstPerOpType::FloatMisc            0                       # Avg number of instructions which cannot be issued (Count)
system.cpu_cluster.cpus.AverageNonIssuedInstPerOpType::FloatSqrt            0                       # Avg number of instructions which cannot be issued (Count)
system.cpu_cluster.cpus.AverageNonIssuedInstPerOpType::SimdAdd            0                       # Avg number of instructions which cannot be issued (Count)
system.cpu_cluster.cpus.AverageNonIssuedInstPerOpType::SimdAddAcc            0                       # Avg number of instructions which cannot be issued (Count)
system.cpu_cluster.cpus.AverageNonIssuedInstPerOpType::SimdAlu            0                       # Avg number of instructions which cannot be issued (Count)
system.cpu_cluster.cpus.AverageNonIssuedInstPerOpType::SimdCmp            0                       # Avg number of instructions which cannot be issued (Count)
system.cpu_cluster.cpus.AverageNonIssuedInstPerOpType::SimdCvt            0                       # Avg number of instructions which cannot be issued (Count)
system.cpu_cluster.cpus.AverageNonIssuedInstPerOpType::SimdMisc            0                       # Avg number of instructions which cannot be issued (Count)
system.cpu_cluster.cpus.AverageNonIssuedInstPerOpType::SimdMult            0                       # Avg number of instructions which cannot be issued (Count)
system.cpu_cluster.cpus.AverageNonIssuedInstPerOpType::SimdMultAcc            0                       # Avg number of instructions which cannot be issued (Count)
system.cpu_cluster.cpus.AverageNonIssuedInstPerOpType::SimdShift            0                       # Avg number of instructions which cannot be issued (Count)
system.cpu_cluster.cpus.AverageNonIssuedInstPerOpType::SimdShiftAcc            0                       # Avg number of instructions which cannot be issued (Count)
system.cpu_cluster.cpus.AverageNonIssuedInstPerOpType::SimdDiv            0                       # Avg number of instructions which cannot be issued (Count)
system.cpu_cluster.cpus.AverageNonIssuedInstPerOpType::SimdSqrt            0                       # Avg number of instructions which cannot be issued (Count)
system.cpu_cluster.cpus.AverageNonIssuedInstPerOpType::SimdFloatAdd            0                       # Avg number of instructions which cannot be issued (Count)
system.cpu_cluster.cpus.AverageNonIssuedInstPerOpType::SimdFloatAlu            0                       # Avg number of instructions which cannot be issued (Count)
system.cpu_cluster.cpus.AverageNonIssuedInstPerOpType::SimdFloatCmp            0                       # Avg number of instructions which cannot be issued (Count)
system.cpu_cluster.cpus.AverageNonIssuedInstPerOpType::SimdFloatCvt            0                       # Avg number of instructions which cannot be issued (Count)
system.cpu_cluster.cpus.AverageNonIssuedInstPerOpType::SimdFloatDiv            0                       # Avg number of instructions which cannot be issued (Count)
system.cpu_cluster.cpus.AverageNonIssuedInstPerOpType::SimdFloatMisc            0                       # Avg number of instructions which cannot be issued (Count)
system.cpu_cluster.cpus.AverageNonIssuedInstPerOpType::SimdFloatMult            0                       # Avg number of instructions which cannot be issued (Count)
system.cpu_cluster.cpus.AverageNonIssuedInstPerOpType::SimdFloatMultAcc            0                       # Avg number of instructions which cannot be issued (Count)
system.cpu_cluster.cpus.AverageNonIssuedInstPerOpType::SimdFloatSqrt            0                       # Avg number of instructions which cannot be issued (Count)
system.cpu_cluster.cpus.AverageNonIssuedInstPerOpType::SimdReduceAdd            0                       # Avg number of instructions which cannot be issued (Count)
system.cpu_cluster.cpus.AverageNonIssuedInstPerOpType::SimdReduceAlu            0                       # Avg number of instructions which cannot be issued (Count)
system.cpu_cluster.cpus.AverageNonIssuedInstPerOpType::SimdReduceCmp            0                       # Avg number of instructions which cannot be issued (Count)
system.cpu_cluster.cpus.AverageNonIssuedInstPerOpType::SimdFloatReduceAdd            0                       # Avg number of instructions which cannot be issued (Count)
system.cpu_cluster.cpus.AverageNonIssuedInstPerOpType::SimdFloatReduceCmp            0                       # Avg number of instructions which cannot be issued (Count)
system.cpu_cluster.cpus.AverageNonIssuedInstPerOpType::SimdAes            0                       # Avg number of instructions which cannot be issued (Count)
system.cpu_cluster.cpus.AverageNonIssuedInstPerOpType::SimdAesMix            0                       # Avg number of instructions which cannot be issued (Count)
system.cpu_cluster.cpus.AverageNonIssuedInstPerOpType::SimdSha1Hash            0                       # Avg number of instructions which cannot be issued (Count)
system.cpu_cluster.cpus.AverageNonIssuedInstPerOpType::SimdSha1Hash2            0                       # Avg number of instructions which cannot be issued (Count)
system.cpu_cluster.cpus.AverageNonIssuedInstPerOpType::SimdSha256Hash            0                       # Avg number of instructions which cannot be issued (Count)
system.cpu_cluster.cpus.AverageNonIssuedInstPerOpType::SimdSha256Hash2            0                       # Avg number of instructions which cannot be issued (Count)
system.cpu_cluster.cpus.AverageNonIssuedInstPerOpType::SimdShaSigma2            0                       # Avg number of instructions which cannot be issued (Count)
system.cpu_cluster.cpus.AverageNonIssuedInstPerOpType::SimdShaSigma3            0                       # Avg number of instructions which cannot be issued (Count)
[...]
system.mem_ctrls1.dram.perBankRdBursts::16            0                       # Per bank write bursts (Count)
system.mem_ctrls1.dram.perBankRdBursts::17            0                       # Per bank write bursts (Count)
system.mem_ctrls1.dram.perBankRdBursts::18            0                       # Per bank write bursts (Count)
system.mem_ctrls1.dram.perBankRdBursts::19            4                       # Per bank write bursts (Count)
system.mem_ctrls1.dram.perBankRdBursts::20            9                       # Per bank write bursts (Count)
system.mem_ctrls1.dram.perBankRdBursts::21            4                       # Per bank write bursts (Count)
system.mem_ctrls1.dram.perBankRdBursts::22           16                       # Per bank write bursts (Count)
system.mem_ctrls1.dram.perBankRdBursts::23            4                       # Per bank write bursts (Count)
system.mem_ctrls1.dram.perBankRdBursts::24            1                       # Per bank write bursts (Count)
system.mem_ctrls1.dram.perBankRdBursts::25            0                       # Per bank write bursts (Count)
system.mem_ctrls1.dram.perBankRdBursts::26            0                       # Per bank write bursts (Count)
system.mem_ctrls1.dram.perBankRdBursts::27            3                       # Per bank write bursts (Count)
system.mem_ctrls1.dram.perBankRdBursts::28            3                       # Per bank write bursts (Count)
system.mem_ctrls1.dram.perBankRdBursts::29            0                       # Per bank write bursts (Count)
system.mem_ctrls1.dram.perBankRdBursts::30            0                       # Per bank write bursts (Count)
system.mem_ctrls1.dram.perBankRdBursts::31            0                       # Per bank write bursts (Count)
system.mem_ctrls1.dram.perBankWrBursts::0            0                       # Per bank write bursts (Count)
system.mem_ctrls1.dram.perBankWrBursts::1            0                       # Per bank write bursts (Count)
system.mem_ctrls1.dram.perBankWrBursts::2            0                       # Per bank write bursts (Count)
system.mem_ctrls1.dram.perBankWrBursts::3            0                       # Per bank write bursts (Count)
system.mem_ctrls1.dram.perBankWrBursts::4            0                       # Per bank write bursts (Count)
system.mem_ctrls1.dram.perBankWrBursts::5            0                       # Per bank write bursts (Count)
system.mem_ctrls1.dram.perBankWrBursts::6            0                       # Per bank write bursts (Count)
system.mem_ctrls1.dram.perBankWrBursts::7            0                       # Per bank write bursts (Count)
system.mem_ctrls1.dram.perBankWrBursts::8            0                       # Per bank write bursts (Count)
system.mem_ctrls1.dram.perBankWrBursts::9            0                       # Per bank write bursts (Count)
system.mem_ctrls1.dram.perBankWrBursts::10            0                       # Per bank write bursts (Count)
system.mem_ctrls1.dram.perBankWrBursts::11            0                       # Per bank write bursts (Count)
system.mem_ctrls1.dram.perBankWrBursts::12            0                       # Per bank write bursts (Count)
system.mem_ctrls1.dram.perBankWrBursts::13            0                       # Per bank write bursts (Count)
system.mem_ctrls1.dram.perBankWrBursts::14            0                       # Per bank write bursts (Count)
system.mem_ctrls1.dram.perBankWrBursts::15            0                       # Per bank write bursts (Count)
system.mem_ctrls1.dram.perBankWrBursts::16            0                       # Per bank write bursts (Count)
system.mem_ctrls1.dram.perBankWrBursts::17            0                       # Per bank write bursts (Count)
system.mem_ctrls1.dram.perBankWrBursts::18            0                       # Per bank write bursts (Count)
system.mem_ctrls1.dram.perBankWrBursts::19            0                       # Per bank write bursts (Count)
system.mem_ctrls1.dram.perBankWrBursts::20            0                       # Per bank write bursts (Count)
system.mem_ctrls1.dram.perBankWrBursts::21            0                       # Per bank write bursts (Count)
system.mem_ctrls1.dram.perBankWrBursts::22            0                       # Per bank write bursts (Count)
system.mem_ctrls1.dram.perBankWrBursts::23            0                       # Per bank write bursts (Count)
system.mem_ctrls1.dram.perBankWrBursts::24            0                       # Per bank write bursts (Count)
system.mem_ctrls1.dram.perBankWrBursts::25            0                       # Per bank write bursts (Count)
system.mem_ctrls1.dram.perBankWrBursts::26            0                       # Per bank write bursts (Count)
system.mem_ctrls1.dram.perBankWrBursts::27            0                       # Per bank write bursts (Count)
system.mem_ctrls1.dram.perBankWrBursts::28            0                       # Per bank write bursts (Count)
system.mem_ctrls1.dram.perBankWrBursts::29            0                       # Per bank write bursts (Count)
system.mem_ctrls1.dram.perBankWrBursts::30            0                       # Per bank write bursts (Count)
system.mem_ctrls1.dram.perBankWrBursts::31            0                       # Per bank write bursts (Count)
system.mem_ctrls1.dram.totQLat                3204811                       # Total ticks spent queuing (Tick)
system.mem_ctrls1.dram.totBusLat              1362788                       # Total ticks spent in databus transfers (Tick)
system.mem_ctrls1.dram.totMemAccLat          10359039                       # Total ticks spent from burst creation until serviced by the DRAM (Tick)
system.mem_ctrls1.dram.avgQLat                7835.72                       # Average queueing delay per DRAM burst ((Tick/Count))
system.mem_ctrls1.dram.avgBusLat              3332.00                       # Average bus latency per DRAM burst ((Tick/Count))
system.mem_ctrls1.dram.avgMemAccLat          25327.72                       # Average memory access latency per DRAM burst ((Tick/Count))
system.mem_ctrls1.dram.readRowHits                314                       # Number of row buffer hits during reads (Count)
system.mem_ctrls1.dram.writeRowHits                 0                       # Number of row buffer hits during writes (Count)
system.mem_ctrls1.dram.readRowHitRate           76.77                       # Row buffer hit rate for reads (Ratio)
system.mem_ctrls1.dram.writeRowHitRate            nan                       # Row buffer hit rate for writes (Ratio)
system.mem_ctrls1.dram.bytesPerActivate::samples           87                       # Bytes accessed per row activation (Byte)
system.mem_ctrls1.dram.bytesPerActivate::mean   282.482759                       # Bytes accessed per row activation (Byte)
system.mem_ctrls1.dram.bytesPerActivate::gmean   178.533189                       # Bytes accessed per row activation (Byte)
system.mem_ctrls1.dram.bytesPerActivate::stdev   297.245176                       # Bytes accessed per row activation (Byte)
system.mem_ctrls1.dram.bytesPerActivate::0-127           28     32.18%     32.18% # Bytes accessed per row activation (Byte)
system.mem_ctrls1.dram.bytesPerActivate::128-255           26     29.89%     62.07% # Bytes accessed per row activation (Byte)
system.mem_ctrls1.dram.bytesPerActivate::256-383           13     14.94%     77.01% # Bytes accessed per row activation (Byte)
system.mem_ctrls1.dram.bytesPerActivate::384-511            3      3.45%     80.46% # Bytes accessed per row activation (Byte)
system.mem_ctrls1.dram.bytesPerActivate::512-639            4      4.60%     85.06% # Bytes accessed per row activation (Byte)
system.mem_ctrls1.dram.bytesPerActivate::640-767            1      1.15%     86.21% # Bytes accessed per row activation (Byte)
system.mem_ctrls1.dram.bytesPerActivate::768-895            4      4.60%     90.80% # Bytes accessed per row activation (Byte)
system.mem_ctrls1.dram.bytesPerActivate::896-1023            1      1.15%     91.95% # Bytes accessed per row activation (Byte)
system.mem_ctrls1.dram.bytesPerActivate::1024-1151            7      8.05%    100.00% # Bytes accessed per row activation (Byte)
system.mem_ctrls1.dram.bytesPerActivate::total           87                       # Bytes accessed per row activation (Byte)
system.mem_ctrls1.dram.bytesRead                26176                       # Total bytes read (Byte)
system.mem_ctrls1.dram.bytesWritten                 0                       # Total bytes written (Byte)
system.mem_ctrls1.dram.avgRdBW            1010.597842                       # Average DRAM read bandwidth in MiBytes/s ((Byte/Second))
system.mem_ctrls1.dram.avgWrBW                      0                       # Average DRAM write bandwidth in MiBytes/s ((Byte/Second))
system.mem_ctrls1.dram.peakBW                19207.00                       # Theoretical peak bandwidth in MiByte/s ((Byte/Second))
system.mem_ctrls1.dram.busUtil                   5.26                       # Data bus utilization in percentage (Ratio)
system.mem_ctrls1.dram.busUtilRead               5.26                       # Data bus utilization in percentage for reads (Ratio)
system.mem_ctrls1.dram.busUtilWrite              0.00                       # Data bus utilization in percentage for writes (Ratio)
system.mem_ctrls1.dram.pageHitRate              76.77                       # Row buffer hit rate, read and write combined (Ratio)
system.mem_ctrls1.dram.power_state.pwrStateResidencyTicks::UNDEFINED     25901500                       # Cumulative time (in ticks) in various power states (Tick)
system.mem_ctrls1.dram.rank0.actEnergy   252618.912000                       # Energy for activate commands per rank (pJ) (Joule)
system.mem_ctrls1.dram.rank0.preEnergy   310975.560000                       # Energy for precharge commands per rank (pJ) (Joule)
system.mem_ctrls1.dram.rank0.readEnergy  1535305.632000                       # Energy for read commands per rank (pJ) (Joule)
system.mem_ctrls1.dram.rank0.writeEnergy            0                       # Energy for write commands per rank (pJ) (Joule)
system.mem_ctrls1.dram.rank0.refreshEnergy 4156132.881600                       # Energy for refresh commands per rank (pJ) (Joule)
system.mem_ctrls1.dram.rank0.actBackEnergy 21804046.891200                       # Energy for active background per rank (pJ) (Joule)
system.mem_ctrls1.dram.rank0.preBackEnergy 155521.766400                       # Energy for precharge background per rank (pJ) (Joule)
system.mem_ctrls1.dram.rank0.actPowerDownEnergy            0                       # Energy for active power-down per rank (pJ) (Joule)
system.mem_ctrls1.dram.rank0.prePowerDownEnergy            0                       # Energy for precharge power-down per rank (pJ) (Joule)
system.mem_ctrls1.dram.rank0.selfRefreshEnergy            0                       # Energy for self refresh per rank (pJ) (Joule)
system.mem_ctrls1.dram.rank0.totalEnergy 28214601.643200                       # Total energy per rank (pJ) (Joule)
system.mem_ctrls1.dram.rank0.averagePower  1089.303772                       # Core power per rank (mW) (Watt)
system.mem_ctrls1.dram.rank0.totalIdleTime            0                       # Total Idle time Per DRAM Rank (Tick)
system.mem_ctrls1.dram.rank0.pwrStateTime::IDLE       155070                       # Time in different power states (Tick)
system.mem_ctrls1.dram.rank0.pwrStateTime::REF      1050000                       # Time in different power states (Tick)
system.mem_ctrls1.dram.rank0.pwrStateTime::SREF            0                       # Time in different power states (Tick)
system.mem_ctrls1.dram.rank0.pwrStateTime::PRE_PDN            0                       # Time in different power states (Tick)
system.mem_ctrls1.dram.rank0.pwrStateTime::ACT     24696430                       # Time in different power states (Tick)
system.mem_ctrls1.dram.rank0.pwrStateTime::ACT_PDN            0                       # Time in different power states (Tick)
system.mem_ctrls1.dram.rank1.actEnergy   43662.528000                       # Energy for activate commands per rank (pJ) (Joule)
system.mem_ctrls1.dram.rank1.preEnergy   49756.089600                       # Energy for precharge commands per rank (pJ) (Joule)
system.mem_ctrls1.dram.rank1.readEnergy  185077.939200                       # Energy for read commands per rank (pJ) (Joule)
system.mem_ctrls1.dram.rank1.writeEnergy            0                       # Energy for write commands per rank (pJ) (Joule)
system.mem_ctrls1.dram.rank1.refreshEnergy 4156132.881600                       # Energy for refresh commands per rank (pJ) (Joule)
system.mem_ctrls1.dram.rank1.actBackEnergy 16894615.449600                       # Energy for active background per rank (pJ) (Joule)
system.mem_ctrls1.dram.rank1.preBackEnergy 3927740.275200                       # Energy for precharge background per rank (pJ) (Joule)
system.mem_ctrls1.dram.rank1.actPowerDownEnergy            0                       # Energy for active power-down per rank (pJ) (Joule)
system.mem_ctrls1.dram.rank1.prePowerDownEnergy            0                       # Energy for precharge power-down per rank (pJ) (Joule)
system.mem_ctrls1.dram.rank1.selfRefreshEnergy            0                       # Energy for self refresh per rank (pJ) (Joule)
system.mem_ctrls1.dram.rank1.totalEnergy 25256985.163200                       # Total energy per rank (pJ) (Joule)
system.mem_ctrls1.dram.rank1.averagePower   975.116698                       # Core power per rank (mW) (Watt)
system.mem_ctrls1.dram.rank1.totalIdleTime            0                       # Total Idle time Per DRAM Rank (Tick)
system.mem_ctrls1.dram.rank1.pwrStateTime::IDLE      5934480                       # Time in different power states (Tick)
system.mem_ctrls1.dram.rank1.pwrStateTime::REF      1050000                       # Time in different power states (Tick)
system.mem_ctrls1.dram.rank1.pwrStateTime::SREF            0                       # Time in different power states (Tick)
system.mem_ctrls1.dram.rank1.pwrStateTime::PRE_PDN            0                       # Time in different power states (Tick)
system.mem_ctrls1.dram.rank1.pwrStateTime::ACT     18917020                       # Time in different power states (Tick)
system.mem_ctrls1.dram.rank1.pwrStateTime::ACT_PDN            0                       # Time in different power states (Tick)
system.mem_ctrls1.power_state.pwrStateResidencyTicks::UNDEFINED     25901500                       # Cumulative time (in ticks) in various power states (Tick)
system.membus.transDist::ReadResp                 721                       # Transaction distribution (Count)
system.membus.transDist::ReadExReq                 87                       # Transaction distribution (Count)
system.membus.transDist::ReadExResp                87                       # Transaction distribution (Count)
system.membus.transDist::ReadCleanReq             722                       # Transaction distribution (Count)
system.membus.transDist::InvalidateReq              7                       # Transaction distribution (Count)
system.membus.pktCount_system.cpu_cluster.l2.mem_side_port::system.mem_ctrls0.port          804                       # Packet count per connected requestor and responder (Count)
system.membus.pktCount_system.cpu_cluster.l2.mem_side_port::system.mem_ctrls1.port          820                       # Packet count per connected requestor and responder (Count)
system.membus.pktCount_system.cpu_cluster.l2.mem_side_port::total         1624                       # Packet count per connected requestor and responder (Count)
system.membus.pktCount::total                    1624                       # Packet count per connected requestor and responder (Count)
system.membus.pktSize_system.cpu_cluster.l2.mem_side_port::system.mem_ctrls0.port        25600                       # Cumulative packet size per connected requestor and responder (Byte)
system.membus.pktSize_system.cpu_cluster.l2.mem_side_port::system.mem_ctrls1.port        26112                       # Cumulative packet size per connected requestor and responder (Byte)
system.membus.pktSize_system.cpu_cluster.l2.mem_side_port::total        51712                       # Cumulative packet size per connected requestor and responder (Byte)
system.membus.pktSize::total                    51712                       # Cumulative packet size per connected requestor and responder (Byte)
system.membus.snoops                                0                       # Total snoops (Count)
system.membus.snoopTraffic                          0                       # Total snoop traffic (Byte)
system.membus.snoopFanout::samples                816                       # Request fanout histogram (Count)
system.membus.snoopFanout::mean                     0                       # Request fanout histogram (Count)
system.membus.snoopFanout::stdev                    0                       # Request fanout histogram (Count)
system.membus.snoopFanout::underflows               0      0.00%      0.00% # Request fanout histogram (Count)
system.membus.snoopFanout::0                      816    100.00%    100.00% # Request fanout histogram (Count)
system.membus.snoopFanout::1                        0      0.00%    100.00% # Request fanout histogram (Count)
system.membus.snoopFanout::overflows                0      0.00%    100.00% # Request fanout histogram (Count)
system.membus.snoopFanout::min_value                0                       # Request fanout histogram (Count)
system.membus.snoopFanout::max_value                0                       # Request fanout histogram (Count)
system.membus.snoopFanout::total                  816                       # Request fanout histogram (Count)
system.membus.power_state.pwrStateResidencyTicks::UNDEFINED     25901500                       # Cumulative time (in ticks) in various power states (Tick)
system.membus.reqLayer0.occupancy              557168                       # Layer occupancy (ticks) (Tick)
system.membus.reqLayer0.utilization               0.0                       # Layer utilization (Ratio)
system.membus.reqLayer1.occupancy              577175                       # Layer occupancy (ticks) (Tick)
system.membus.reqLayer1.utilization               0.0                       # Layer utilization (Ratio)
system.membus.respLayer1.occupancy            4280992                       # Layer occupancy (ticks) (Tick)
system.membus.respLayer1.utilization              0.2                       # Layer utilization (Ratio)
system.membus.snoop_filter.totRequests            816                       # Total number of requests made to the snoop filter. (Count)
system.membus.snoop_filter.hitSingleRequests            2                       # Number of requests hitting in the snoop filter with a single holder of the requested data. (Count)
system.membus.snoop_filter.hitMultiRequests            0                       # Number of requests hitting in the snoop filter with multiple (>1) holders of the requested data. (Count)
system.membus.snoop_filter.totSnoops                0                       # Total number of snoops made to the snoop filter. (Count)
system.membus.snoop_filter.hitSingleSnoops            0                       # Number of snoops hitting in the snoop filter with a single holder of the requested data. (Count)
system.membus.snoop_filter.hitMultiSnoops            0                       # Number of snoops hitting in the snoop filter with multiple (>1) holders of the requested data. (Count)
system.voltage_domain.voltage                3.300000                       # Voltage in Volts (Volt)
system.workload.inst.arm                            0                       # number of arm instructions executed (Count)
system.workload.inst.quiesce                        0                       # number of quiesce instructions executed (Count)

---------- End Simulation Statistics   ----------
