
---------- Begin Simulation Statistics ----------
simSeconds                                   0.000026                       # Number of seconds simulated (Second)
simTicks                                     26019500                       # Number of ticks simulated (Tick)
finalTick                                    26019500                       # Number of ticks from beginning of simulation (restored from checkpoints and never reset) (Tick)
simFreq                                  1000000000000                       # The number of ticks per simulated second ((Tick/Second))
hostSeconds                                      0.47                       # Real time elapsed on the host (Second)
hostTickRate                                 55118127                       # The number of ticks simulated per host second (ticks/s) ((Tick/Second))
hostMemory                                    2261968                       # Number of bytes of host memory used (Byte)
simInsts                                         8626                       # Number of instructions simulated (Count)
simOps                                          10317                       # Number of ops (including micro ops) simulated (Count)
hostInstRate                                    18270                       # Simulator instruction rate (inst/s) ((Count/Second))
hostOpRate                                      21851                       # Simulator op (including micro ops) rate (op/s) ((Count/Second))
system.clk_domain.clock                          1000                       # Clock period in ticks (Tick)
system.cpu_cluster.clk_domain.clock               250                       # Clock period in ticks (Tick)
system.cpu_cluster.cpus.numCycles              104079                       # Number of cpu cycles simulated (Cycle)
system.cpu_cluster.cpus.numWorkItemsStarted            0                       # Number of work items this cpu started (Count)
system.cpu_cluster.cpus.numWorkItemsCompleted            0                       # Number of work items this cpu completed (Count)
system.cpu_cluster.cpus.instsAdded              17634                       # Number of instructions added to the IQ (excludes non-spec) (Count)
system.cpu_cluster.cpus.nonSpecInstsAdded          127                       # Number of non-speculative instructions added to the IQ (Count)
system.cpu_cluster.cpus.instsIssued             15952                       # Number of instructions issued (Count)
system.cpu_cluster.cpus.NoReadyInst             97529                       # No instructions ready in this cycle (Count)
system.cpu_cluster.cpus.ReadyInstMoreThanBW         1551                       # More ready instructions than available bandwidth (Count)
system.cpu_cluster.cpus.squashedInstsIssued           95                       # Number of squashed instructions issued (Count)
system.cpu_cluster.cpus.squashedInstsExamined         7443                       # Number of squashed instructions iterated over during squash; mainly for profiling (Count)
system.cpu_cluster.cpus.squashedOperandsExamined         4313                       # Number of squashed operands that are examined and possibly removed from graph (Count)
system.cpu_cluster.cpus.squashedNonSpecRemoved           35                       # Number of squashed non-spec instructions that were removed (Count)
system.cpu_cluster.cpus.fuBusyS                     6                       # FU busy when requested (Count)
system.cpu_cluster.cpus.numIssuedDist::samples       104079                       # Number of insts issued each cycle (Count)
system.cpu_cluster.cpus.numIssuedDist::mean     0.153268                       # Number of insts issued each cycle (Count)
system.cpu_cluster.cpus.numIssuedDist::stdev     0.654831                       # Number of insts issued each cycle (Count)
system.cpu_cluster.cpus.numIssuedDist::underflows            0      0.00%      0.00% # Number of insts issued each cycle (Count)
system.cpu_cluster.cpus.numIssuedDist::0        97529     93.71%     93.71% # Number of insts issued each cycle (Count)
system.cpu_cluster.cpus.numIssuedDist::1         1756      1.69%     95.39% # Number of insts issued each cycle (Count)
system.cpu_cluster.cpus.numIssuedDist::2         1737      1.67%     97.06% # Number of insts issued each cycle (Count)
system.cpu_cluster.cpus.numIssuedDist::3         1506      1.45%     98.51% # Number of insts issued each cycle (Count)
system.cpu_cluster.cpus.numIssuedDist::4         1551      1.49%    100.00% # Number of insts issued each cycle (Count)
system.cpu_cluster.cpus.numIssuedDist::overflows            0      0.00%    100.00% # Number of insts issued each cycle (Count)
system.cpu_cluster.cpus.numIssuedDist::min_value            0                       # Number of insts issued each cycle (Count)
system.cpu_cluster.cpus.numIssuedDist::max_value            4                       # Number of insts issued each cycle (Count)
system.cpu_cluster.cpus.numIssuedDist::total       104079                       # Number of insts issued each cycle (Count)
system.cpu_cluster.cpus.statFuBusy::No_OpClass            0      0.00%      0.00% # attempts to use FU when none available (Count)
system.cpu_cluster.cpus.statFuBusy::IntAlu            0      0.00%      0.00% # attempts to use FU when none available (Count)
system.cpu_cluster.cpus.statFuBusy::IntMult            0      0.00%      0.00% # attempts to use FU when none available (Count)
system.cpu_cluster.cpus.statFuBusy::IntDiv            0      0.00%      0.00% # attempts to use FU when none available (Count)
system.cpu_cluster.cpus.statFuBusy::FloatAdd            0      0.00%      0.00% # attempts to use FU when none available (Count)
system.cpu_cluster.cpus.statFuBusy::FloatCmp            0      0.00%      0.00% # attempts to use FU when none available (Count)
system.cpu_cluster.cpus.statFuBusy::FloatCvt            0      0.00%      0.00% # attempts to use FU when none available (Count)
system.cpu_cluster.cpus.statFuBusy::FloatMult            0      0.00%      0.00% # attempts to use FU when none available (Count)
system.cpu_cluster.cpus.statFuBusy::FloatMultAcc            0      0.00%      0.00% # attempts to use FU when none available (Count)
system.cpu_cluster.cpus.statFuBusy::FloatDiv            0      0.00%      0.00% # attempts to use FU when none available (Count)
system.cpu_cluster.cpus.statFuBusy::FloatMisc            0      0.00%      0.00% # attempts to use FU when none available (Count)
system.cpu_cluster.cpus.statFuBusy::FloatSqrt            0      0.00%      0.00% # attempts to use FU when none available (Count)
system.cpu_cluster.cpus.statFuBusy::SimdAdd            0      0.00%      0.00% # attempts to use FU when none available (Count)
system.cpu_cluster.cpus.statFuBusy::SimdAddAcc            0      0.00%      0.00% # attempts to use FU when none available (Count)
system.cpu_cluster.cpus.statFuBusy::SimdAlu            0      0.00%      0.00% # attempts to use FU when none available (Count)
system.cpu_cluster.cpus.statFuBusy::SimdCmp            0      0.00%      0.00% # attempts to use FU when none available (Count)
system.cpu_cluster.cpus.statFuBusy::SimdCvt            0      0.00%      0.00% # attempts to use FU when none available (Count)
system.cpu_cluster.cpus.statFuBusy::SimdMisc            0      0.00%      0.00% # attempts to use FU when none available (Count)
system.cpu_cluster.cpus.statFuBusy::SimdMult            0      0.00%      0.00% # attempts to use FU when none available (Count)
system.cpu_cluster.cpus.statFuBusy::SimdMultAcc            0      0.00%      0.00% # attempts to use FU when none available (Count)
system.cpu_cluster.cpus.statFuBusy::SimdShift            0      0.00%      0.00% # attempts to use FU when none available (Count)
system.cpu_cluster.cpus.statFuBusy::SimdShiftAcc            0      0.00%      0.00% # attempts to use FU when none available (Count)
system.cpu_cluster.cpus.statFuBusy::SimdDiv            0      0.00%      0.00% # attempts to use FU when none available (Count)
system.cpu_cluster.cpus.statFuBusy::SimdSqrt            0      0.00%      0.00% # attempts to use FU when none available (Count)
system.cpu_cluster.cpus.statFuBusy::SimdFloatAdd            0      0.00%      0.00% # attempts to use FU when none available (Count)
system.cpu_cluster.cpus.statFuBusy::SimdFloatAlu            0      0.00%      0.00% # attempts to use FU when none available (Count)
system.cpu_cluster.cpus.statFuBusy::SimdFloatCmp            0      0.00%      0.00% # attempts to use FU when none available (Count)
system.cpu_cluster.cpus.statFuBusy::SimdFloatCvt            0      0.00%      0.00% # attempts to use FU when none available (Count)
system.cpu_cluster.cpus.statFuBusy::SimdFloatDiv            0      0.00%      0.00% # attempts to use FU when none available (Count)
system.cpu_cluster.cpus.statFuBusy::SimdFloatMisc            0      0.00%      0.00% # attempts to use FU when none available (Count)
system.cpu_cluster.cpus.statFuBusy::SimdFloatMult            0      0.00%      0.00% # attempts to use FU when none available (Count)
system.cpu_cluster.cpus.statFuBusy::SimdFloatMultAcc            0      0.00%      0.00% # attempts to use FU when none available (Count)
system.cpu_cluster.cpus.statFuBusy::SimdFloatSqrt            0      0.00%      0.00% # attempts to use FU when none available (Count)
system.cpu_cluster.cpus.statFuBusy::SimdReduceAdd            0      0.00%      0.00% # attempts to use FU when none available (Count)
system.cpu_cluster.cpus.statFuBusy::SimdReduceAlu            0      0.00%      0.00% # attempts to use FU when none available (Count)
system.cpu_cluster.cpus.statFuBusy::SimdReduceCmp            0      0.00%      0.00% # attempts to use FU when none available (Count)
system.cpu_cluster.cpus.statFuBusy::SimdFloatReduceAdd            0      0.00%      0.00% # attempts to use FU when none available (Count)
system.cpu_cluster.cpus.statFuBusy::SimdFloatReduceCmp            0      0.00%      0.00% # attempts to use FU when none available (Count)
system.cpu_cluster.cpus.statFuBusy::SimdAes            0      0.00%      0.00% # attempts to use FU when none available (Count)
system.cpu_cluster.cpus.statFuBusy::SimdAesMix            0      0.00%      0.00% # attempts to use FU when none available (Count)
system.cpu_cluster.cpus.statFuBusy::SimdSha1Hash            0      0.00%      0.00% # attempts to use FU when none available (Count)
system.cpu_cluster.cpus.statFuBusy::SimdSha1Hash2            0      0.00%      0.00% # attempts to use FU when none available (Count)
system.cpu_cluster.cpus.statFuBusy::SimdSha256Hash            0      0.00%      0.00% # attempts to use FU when none available (Count)
system.cpu_cluster.cpus.statFuBusy::SimdSha256Hash2            0      0.00%      0.00% # attempts to use FU when none available (Count)
system.cpu_cluster.cpus.statFuBusy::SimdShaSigma2            0      0.00%      0.00% # attempts to use FU when none available (Count)
system.cpu_cluster.cpus.statFuBusy::SimdShaSigma3            0      0.00%      0.00% # attempts to use FU when none available (Count)
system.cpu_cluster.cpus.statFuBusy::SimdPredAlu            0      0.00%      0.00% # attempts to use FU when none available (Count)
system.cpu_cluster.cpus.statFuBusy::MemRead            6    100.00%    100.00% # attempts to use FU when none available (Count)
system.cpu_cluster.cpus.statFuBusy::MemWrite            0      0.00%    100.00% # attempts to use FU when none available (Count)
system.cpu_cluster.cpus.statFuBusy::FloatMemRead            0      0.00%    100.00% # attempts to use FU when none available (Count)
system.cpu_cluster.cpus.statFuBusy::FloatMemWrite            0      0.00%    100.00% # attempts to use FU when none available (Count)
system.cpu_cluster.cpus.statFuBusy::IprAccess            0      0.00%    100.00% # attempts to use FU when none available (Count)
system.cpu_cluster.cpus.statFuBusy::InstPrefetch            0      0.00%    100.00% # attempts to use FU when none available (Count)
system.cpu_cluster.cpus.statFuNoFree::No_OpClass            0      0.00%      0.00% # attempts to use FU when none available (Count)
system.cpu_cluster.cpus.statFuNoFree::IntAlu            0      0.00%      0.00% # attempts to use FU when none available (Count)
system.cpu_cluster.cpus.statFuNoFree::IntMult            0      0.00%      0.00% # attempts to use FU when none available (Count)
system.cpu_cluster.cpus.statFuNoFree::IntDiv            0      0.00%      0.00% # attempts to use FU when none available (Count)
system.cpu_cluster.cpus.statFuNoFree::FloatAdd            0      0.00%      0.00% # attempts to use FU when none available (Count)
system.cpu_cluster.cpus.statFuNoFree::FloatCmp            0      0.00%      0.00% # attempts to use FU when none available (Count)
system.cpu_cluster.cpus.statFuNoFree::FloatCvt            0      0.00%      0.00% # attempts to use FU when none available (Count)
system.cpu_cluster.cpus.statFuNoFree::FloatMult            0      0.00%      0.00% # attempts to use FU when none available (Count)
system.cpu_cluster.cpus.statFuNoFree::FloatMultAcc            0      0.00%      0.00% # attempts to use FU when none available (Count)
system.cpu_cluster.cpus.statFuNoFree::FloatDiv            0      0.00%      0.00% # attempts to use FU when none available (Count)
system.cpu_cluster.cpus.statFuNoFree::FloatMisc            0      0.00%      0.00% # attempts to use FU when none available (Count)
system.cpu_cluster.cpus.statFuNoFree::FloatSqrt            0      0.00%      0.00% # attempts to use FU when none available (Count)
system.cpu_cluster.cpus.statFuNoFree::SimdAdd            0      0.00%      0.00% # attempts to use FU when none available (Count)
system.cpu_cluster.cpus.statFuNoFree::SimdAddAcc            0      0.00%      0.00% # attempts to use FU when none available (Count)
system.cpu_cluster.cpus.statFuNoFree::SimdAlu            0      0.00%      0.00% # attempts to use FU when none available (Count)
system.cpu_cluster.cpus.statFuNoFree::SimdCmp            0      0.00%      0.00% # attempts to use FU when none available (Count)
system.cpu_cluster.cpus.statFuNoFree::SimdCvt            0      0.00%      0.00% # attempts to use FU when none available (Count)
system.cpu_cluster.cpus.statFuNoFree::SimdMisc            0      0.00%      0.00% # attempts to use FU when none available (Count)
system.cpu_cluster.cpus.statFuNoFree::SimdMult            0      0.00%      0.00% # attempts to use FU when none available (Count)
system.cpu_cluster.cpus.statFuNoFree::SimdMultAcc            0      0.00%      0.00% # attempts to use FU when none available (Count)
system.cpu_cluster.cpus.statFuNoFree::SimdShift            0      0.00%      0.00% # attempts to use FU when none available (Count)
system.cpu_cluster.cpus.statFuNoFree::SimdShiftAcc            0      0.00%      0.00% # attempts to use FU when none available (Count)
system.cpu_cluster.cpus.statFuNoFree::SimdDiv            0      0.00%      0.00% # attempts to use FU when none available (Count)
system.cpu_cluster.cpus.statFuNoFree::SimdSqrt            0      0.00%      0.00% # attempts to use FU when none available (Count)
system.cpu_cluster.cpus.statFuNoFree::SimdFloatAdd            0      0.00%      0.00% # attempts to use FU when none available (Count)
system.cpu_cluster.cpus.statFuNoFree::SimdFloatAlu            0      0.00%      0.00% # attempts to use FU when none available (Count)
system.cpu_cluster.cpus.statFuNoFree::SimdFloatCmp            0      0.00%      0.00% # attempts to use FU when none available (Count)
system.cpu_cluster.cpus.statFuNoFree::SimdFloatCvt            0      0.00%      0.00% # attempts to use FU when none available (Count)
system.cpu_cluster.cpus.statFuNoFree::SimdFloatDiv            0      0.00%      0.00% # attempts to use FU when none available (Count)
system.cpu_cluster.cpus.statFuNoFree::SimdFloatMisc            0      0.00%      0.00% # attempts to use FU when none available (Count)
system.cpu_cluster.cpus.statFuNoFree::SimdFloatMult            0      0.00%      0.00% # attempts to use FU when none available (Count)
system.cpu_cluster.cpus.statFuNoFree::SimdFloatMultAcc            0      0.00%      0.00% # attempts to use FU when none available (Count)
system.cpu_cluster.cpus.statFuNoFree::SimdFloatSqrt            0      0.00%      0.00% # attempts to use FU when none available (Count)
system.cpu_cluster.cpus.statFuNoFree::SimdReduceAdd            0      0.00%      0.00% # attempts to use FU when none available (Count)
system.cpu_cluster.cpus.statFuNoFree::SimdReduceAlu            0      0.00%      0.00% # attempts to use FU when none available (Count)
system.cpu_cluster.cpus.statFuNoFree::SimdReduceCmp            0      0.00%      0.00% # attempts to use FU when none available (Count)
system.cpu_cluster.cpus.statFuNoFree::SimdFloatReduceAdd            0      0.00%      0.00% # attempts to use FU when none available (Count)
system.cpu_cluster.cpus.statFuNoFree::SimdFloatReduceCmp            0      0.00%      0.00% # attempts to use FU when none available (Count)
system.cpu_cluster.cpus.statFuNoFree::SimdAes            0      0.00%      0.00% # attempts to use FU when none available (Count)
system.cpu_cluster.cpus.statFuNoFree::SimdAesMix            0      0.00%      0.00% # attempts to use FU when none available (Count)
system.cpu_cluster.cpus.statFuNoFree::SimdSha1Hash            0      0.00%      0.00% # attempts to use FU when none available (Count)
system.cpu_cluster.cpus.statFuNoFree::SimdSha1Hash2            0      0.00%      0.00% # attempts to use FU when none available (Count)
system.cpu_cluster.cpus.statFuNoFree::SimdSha256Hash            0      0.00%      0.00% # attempts to use FU when none available (Count)
system.cpu_cluster.cpus.statFuNoFree::SimdSha256Hash2            0      0.00%      0.00% # attempts to use FU when none available (Count)
system.cpu_cluster.cpus.statFuNoFree::SimdShaSigma2            0      0.00%      0.00% # attempts to use FU when none available (Count)
system.cpu_cluster.cpus.statFuNoFree::SimdShaSigma3            0      0.00%      0.00% # attempts to use FU when none available (Count)
system.cpu_cluster.cpus.statFuNoFree::SimdPredAlu            0      0.00%      0.00% # attempts to use FU when none available (Count)
system.cpu_cluster.cpus.statFuNoFree::MemRead           15     65.22%     65.22% # attempts to use FU when none available (Count)
system.cpu_cluster.cpus.statFuNoFree::MemWrite            8     34.78%    100.00% # attempts to use FU when none available (Count)
system.cpu_cluster.cpus.statFuNoFree::FloatMemRead            0      0.00%    100.00% # attempts to use FU when none available (Count)
system.cpu_cluster.cpus.statFuNoFree::FloatMemWrite            0      0.00%    100.00% # attempts to use FU when none available (Count)
system.cpu_cluster.cpus.statFuNoFree::IprAccess            0      0.00%    100.00% # attempts to use FU when none available (Count)
system.cpu_cluster.cpus.statFuNoFree::InstPrefetch            0      0.00%    100.00% # attempts to use FU when none available (Count)
system.cpu_cluster.cpus.statAvgFUUtilization::No_OpClass            0      0.00%      0.00% # Avg utilization of FU (Count)
system.cpu_cluster.cpus.statAvgFUUtilization::IntAlu     0.105256     28.88%     28.88% # Avg utilization of FU (Count)
system.cpu_cluster.cpus.statAvgFUUtilization::IntMult     0.025759      7.07%     35.94% # Avg utilization of FU (Count)
system.cpu_cluster.cpus.statAvgFUUtilization::IntDiv     0.025759      7.07%     43.01% # Avg utilization of FU (Count)
system.cpu_cluster.cpus.statAvgFUUtilization::FloatAdd     0.000346      0.09%     43.11% # Avg utilization of FU (Count)
system.cpu_cluster.cpus.statAvgFUUtilization::FloatCmp     0.000346      0.09%     43.20% # Avg utilization of FU (Count)
system.cpu_cluster.cpus.statAvgFUUtilization::FloatCvt     0.000346      0.09%     43.30% # Avg utilization of FU (Count)
system.cpu_cluster.cpus.statAvgFUUtilization::FloatMult     0.000346      0.09%     43.39% # Avg utilization of FU (Count)
system.cpu_cluster.cpus.statAvgFUUtilization::FloatMultAcc     0.000346      0.09%     43.49% # Avg utilization of FU (Count)
system.cpu_cluster.cpus.statAvgFUUtilization::FloatDiv     0.000173      0.05%     43.53% # Avg utilization of FU (Count)
system.cpu_cluster.cpus.statAvgFUUtilization::FloatMisc     0.000346      0.09%     43.63% # Avg utilization of FU (Count)
system.cpu_cluster.cpus.statAvgFUUtilization::FloatSqrt     0.000173      0.05%     43.67% # Avg utilization of FU (Count)
system.cpu_cluster.cpus.statAvgFUUtilization::SimdAdd     0.000346      0.09%     43.77% # Avg utilization of FU (Count)
system.cpu_cluster.cpus.statAvgFUUtilization::SimdAddAcc     0.000173      0.05%     43.82% # Avg utilization of FU (Count)
system.cpu_cluster.cpus.statAvgFUUtilization::SimdAlu     0.000346      0.09%     43.91% # Avg utilization of FU (Count)
system.cpu_cluster.cpus.statAvgFUUtilization::SimdCmp     0.000346      0.09%     44.01% # Avg utilization of FU (Count)
system.cpu_cluster.cpus.statAvgFUUtilization::SimdCvt     0.000269      0.07%     44.08% # Avg utilization of FU (Count)
system.cpu_cluster.cpus.statAvgFUUtilization::SimdMisc     0.000346      0.09%     44.18% # Avg utilization of FU (Count)
system.cpu_cluster.cpus.statAvgFUUtilization::SimdMult     0.000346      0.09%     44.27% # Avg utilization of FU (Count)
system.cpu_cluster.cpus.statAvgFUUtilization::SimdMultAcc     0.000173      0.05%     44.32% # Avg utilization of FU (Count)
system.cpu_cluster.cpus.statAvgFUUtilization::SimdShift     0.000173      0.05%     44.37% # Avg utilization of FU (Count)
system.cpu_cluster.cpus.statAvgFUUtilization::SimdShiftAcc     0.000173      0.05%     44.41% # Avg utilization of FU (Count)
system.cpu_cluster.cpus.statAvgFUUtilization::SimdDiv            0      0.00%     44.41% # Avg utilization of FU (Count)
system.cpu_cluster.cpus.statAvgFUUtilization::SimdSqrt     0.000173      0.05%     44.46% # Avg utilization of FU (Count)
system.cpu_cluster.cpus.statAvgFUUtilization::SimdFloatAdd     0.000346      0.09%     44.56% # Avg utilization of FU (Count)
system.cpu_cluster.cpus.statAvgFUUtilization::SimdFloatAlu            0      0.00%     44.56% # Avg utilization of FU (Count)
system.cpu_cluster.cpus.statAvgFUUtilization::SimdFloatCmp     0.000346      0.09%     44.65% # Avg utilization of FU (Count)
system.cpu_cluster.cpus.statAvgFUUtilization::SimdFloatCvt            0      0.00%     44.65% # Avg utilization of FU (Count)
system.cpu_cluster.cpus.statAvgFUUtilization::SimdFloatDiv     0.000173      0.05%     44.70% # Avg utilization of FU (Count)
system.cpu_cluster.cpus.statAvgFUUtilization::SimdFloatMisc     0.000346      0.09%     44.79% # Avg utilization of FU (Count)
system.cpu_cluster.cpus.statAvgFUUtilization::SimdFloatMult            0      0.00%     44.79% # Avg utilization of FU (Count)
system.cpu_cluster.cpus.statAvgFUUtilization::SimdFloatMultAcc     0.000346      0.09%     44.89% # Avg utilization of FU (Count)
system.cpu_cluster.cpus.statAvgFUUtilization::SimdFloatSqrt     0.000173      0.05%     44.93% # Avg utilization of FU (Count)
system.cpu_cluster.cpus.statAvgFUUtilization::SimdReduceAdd     0.000346      0.09%     45.03% # Avg utilization of FU (Count)
system.cpu_cluster.cpus.statAvgFUUtilization::SimdReduceAlu     0.000346      0.09%     45.12% # Avg utilization of FU (Count)
system.cpu_cluster.cpus.statAvgFUUtilization::SimdReduceCmp     0.000173      0.05%     45.17% # Avg utilization of FU (Count)
system.cpu_cluster.cpus.statAvgFUUtilization::SimdFloatReduceAdd     0.000346      0.09%     45.27% # Avg utilization of FU (Count)
system.cpu_cluster.cpus.statAvgFUUtilization::SimdFloatReduceCmp     0.000346      0.09%     45.36% # Avg utilization of FU (Count)
system.cpu_cluster.cpus.statAvgFUUtilization::SimdAes     0.000346      0.09%     45.46% # Avg utilization of FU (Count)
system.cpu_cluster.cpus.statAvgFUUtilization::SimdAesMix     0.000346      0.09%     45.55% # Avg utilization of FU (Count)
system.cpu_cluster.cpus.statAvgFUUtilization::SimdSha1Hash     0.000086      0.02%     45.58% # Avg utilization of FU (Count)
system.cpu_cluster.cpus.statAvgFUUtilization::SimdSha1Hash2     0.000086      0.02%     45.60% # Avg utilization of FU (Count)
system.cpu_cluster.cpus.statAvgFUUtilization::SimdSha256Hash     0.000086      0.02%     45.62% # Avg utilization of FU (Count)
system.cpu_cluster.cpus.statAvgFUUtilization::SimdSha256Hash2     0.000086      0.02%     45.65% # Avg utilization of FU (Count)
system.cpu_cluster.cpus.statAvgFUUtilization::SimdShaSigma2     0.000086      0.02%     45.67% # Avg utilization of FU (Count)
system.cpu_cluster.cpus.statAvgFUUtilization::SimdShaSigma3     0.000086      0.02%     45.69% # Avg utilization of FU (Count)
system.cpu_cluster.cpus.statAvgFUUtilization::SimdPredAlu     0.022319      6.12%     51.82% # Avg utilization of FU (Count)
system.cpu_cluster.cpus.statAvgFUUtilization::MemRead     0.036761     10.09%     61.90% # Avg utilization of FU (Count)
system.cpu_cluster.cpus.statAvgFUUtilization::MemWrite     0.038173     10.47%     72.38% # Avg utilization of FU (Count)
system.cpu_cluster.cpus.statAvgFUUtilization::FloatMemRead     0.036761     10.09%     82.46% # Avg utilization of FU (Count)
system.cpu_cluster.cpus.statAvgFUUtilization::FloatMemWrite     0.038173     10.47%     92.93% # Avg utilization of FU (Count)
system.cpu_cluster.cpus.statAvgFUUtilization::IprAccess     0.025759      7.07%    100.00% # Avg utilization of FU (Count)
system.cpu_cluster.cpus.statAvgFUUtilization::InstPrefetch            0      0.00%    100.00% # Avg utilization of FU (Count)
system.cpu_cluster.cpus.statFuBusyPerThreadCollective::0            6                       # Number of times instruction not issued because FU not available, per thread (Count)
system.cpu_cluster.cpus.statFuBusyPerThreadCollective::1            0                       # Number of times instruction not issued because FU not available, per thread (Count)
system.cpu_cluster.cpus.statFuBusyPerThreadCollective::2            0                       # Number of times instruction not issued because FU not available, per thread (Count)
system.cpu_cluster.cpus.statFuBusyPerThreadCollective::3            0                       # Number of times instruction not issued because FU not available, per thread (Count)
system.cpu_cluster.cpus.statFuBusyPerThreadCollective::total            6                       # Number of times instruction not issued because FU not available, per thread (Count)
system.cpu_cluster.cpus.statIssuedInstType_0::No_OpClass           38      0.24%      0.24% # Number of instructions issued per FU type, per thread (Count)
system.cpu_cluster.cpus.statIssuedInstType_0::IntAlu        10944     68.61%     68.84% # Number of instructions issued per FU type, per thread (Count)
system.cpu_cluster.cpus.statIssuedInstType_0::IntMult            6      0.04%     68.88% # Number of instructions issued per FU type, per thread (Count)
system.cpu_cluster.cpus.statIssuedInstType_0::IntDiv            5      0.03%     68.91% # Number of instructions issued per FU type, per thread (Count)
system.cpu_cluster.cpus.statIssuedInstType_0::FloatAdd            0      0.00%     68.91% # Number of instructions issued per FU type, per thread (Count)
system.cpu_cluster.cpus.statIssuedInstType_0::FloatCmp            0      0.00%     68.91% # Number of instructions issued per FU type, per thread (Count)
system.cpu_cluster.cpus.statIssuedInstType_0::FloatCvt            0      0.00%     68.91% # Number of instructions issued per FU type, per thread (Count)
system.cpu_cluster.cpus.statIssuedInstType_0::FloatMult            0      0.00%     68.91% # Number of instructions issued per FU type, per thread (Count)
system.cpu_cluster.cpus.statIssuedInstType_0::FloatMultAcc            0      0.00%     68.91% # Number of instructions issued per FU type, per thread (Count)
system.cpu_cluster.cpus.statIssuedInstType_0::FloatDiv            0      0.00%     68.91% # Number of instructions issued per FU type, per thread (Count)
system.cpu_cluster.cpus.statIssuedInstType_0::FloatMisc            0      0.00%     68.91% # Number of instructions issued per FU type, per thread (Count)
system.cpu_cluster.cpus.statIssuedInstType_0::FloatSqrt            0      0.00%     68.91% # Number of instructions issued per FU type, per thread (Count)
system.cpu_cluster.cpus.statIssuedInstType_0::SimdAdd           11      0.07%     68.98% # Number of instructions issued per FU type, per thread (Count)
system.cpu_cluster.cpus.statIssuedInstType_0::SimdAddAcc            0      0.00%     68.98% # Number of instructions issued per FU type, per thread (Count)
system.cpu_cluster.cpus.statIssuedInstType_0::SimdAlu            8      0.05%     69.03% # Number of instructions issued per FU type, per thread (Count)
system.cpu_cluster.cpus.statIssuedInstType_0::SimdCmp            8      0.05%     69.08% # Number of instructions issued per FU type, per thread (Count)
system.cpu_cluster.cpus.statIssuedInstType_0::SimdCvt            0      0.00%     69.08% # Number of instructions issued per FU type, per thread (Count)
system.cpu_cluster.cpus.statIssuedInstType_0::SimdMisc            9      0.06%     69.14% # Number of instructions issued per FU type, per thread (Count)
system.cpu_cluster.cpus.statIssuedInstType_0::SimdMult            0      0.00%     69.14% # Number of instructions issued per FU type, per thread (Count)
system.cpu_cluster.cpus.statIssuedInstType_0::SimdMultAcc            0      0.00%     69.14% # Number of instructions issued per FU type, per thread (Count)
system.cpu_cluster.cpus.statIssuedInstType_0::SimdShift            0      0.00%     69.14% # Number of instructions issued per FU type, per thread (Count)
system.cpu_cluster.cpus.statIssuedInstType_0::SimdShiftAcc            0      0.00%     69.14% # Number of instructions issued per FU type, per thread (Count)
system.cpu_cluster.cpus.statIssuedInstType_0::SimdDiv            0      0.00%     69.14% # Number of instructions issued per FU type, per thread (Count)
system.cpu_cluster.cpus.statIssuedInstType_0::SimdSqrt            0      0.00%     69.14% # Number of instructions issued per FU type, per thread (Count)
system.cpu_cluster.cpus.statIssuedInstType_0::SimdFloatAdd            0      0.00%     69.14% # Number of instructions issued per FU type, per thread (Count)
system.cpu_cluster.cpus.statIssuedInstType_0::SimdFloatAlu            0      0.00%     69.14% # Number of instructions issued per FU type, per thread (Count)
system.cpu_cluster.cpus.statIssuedInstType_0::SimdFloatCmp            0      0.00%     69.14% # Number of instructions issued per FU type, per thread (Count)
system.cpu_cluster.cpus.statIssuedInstType_0::SimdFloatCvt            0      0.00%     69.14% # Number of instructions issued per FU type, per thread (Count)
system.cpu_cluster.cpus.statIssuedInstType_0::SimdFloatDiv            0      0.00%     69.14% # Number of instructions issued per FU type, per thread (Count)
system.cpu_cluster.cpus.statIssuedInstType_0::SimdFloatMisc            0      0.00%     69.14% # Number of instructions issued per FU type, per thread (Count)
system.cpu_cluster.cpus.statIssuedInstType_0::SimdFloatMult            0      0.00%     69.14% # Number of instructions issued per FU type, per thread (Count)
system.cpu_cluster.cpus.statIssuedInstType_0::SimdFloatMultAcc            0      0.00%     69.14% # Number of instructions issued per FU type, per thread (Count)
system.cpu_cluster.cpus.statIssuedInstType_0::SimdFloatSqrt            0      0.00%     69.14% # Number of instructions issued per FU type, per thread (Count)
system.cpu_cluster.cpus.statIssuedInstType_0::SimdReduceAdd            0      0.00%     69.14% # Number of instructions issued per FU type, per thread (Count)
system.cpu_cluster.cpus.statIssuedInstType_0::SimdReduceAlu            0      0.00%     69.14% # Number of instructions issued per FU type, per thread (Count)
system.cpu_cluster.cpus.statIssuedInstType_0::SimdReduceCmp            0      0.00%     69.14% # Number of instructions issued per FU type, per thread (Count)
system.cpu_cluster.cpus.statIssuedInstType_0::SimdFloatReduceAdd            0      0.00%     69.14% # Number of instructions issued per FU type, per thread (Count)
system.cpu_cluster.cpus.statIssuedInstType_0::SimdFloatReduceCmp            0      0.00%     69.14% # Number of instructions issued per FU type, per thread (Count)
system.cpu_cluster.cpus.statIssuedInstType_0::SimdAes            0      0.00%     69.14% # Number of instructions issued per FU type, per thread (Count)
system.cpu_cluster.cpus.statIssuedInstType_0::SimdAesMix            0      0.00%     69.14% # Number of instructions issued per FU type, per thread (Count)
system.cpu_cluster.cpus.statIssuedInstType_0::SimdSha1Hash            0      0.00%     69.14% # Number of instructions issued per FU type, per thread (Count)
system.cpu_cluster.cpus.statIssuedInstType_0::SimdSha1Hash2            0      0.00%     69.14% # Number of instructions issued per FU type, per thread (Count)
system.cpu_cluster.cpus.statIssuedInstType_0::SimdSha256Hash            0      0.00%     69.14% # Number of instructions issued per FU type, per thread (Count)
system.cpu_cluster.cpus.statIssuedInstType_0::SimdSha256Hash2            0      0.00%     69.14% # Number of instructions issued per FU type, per thread (Count)
system.cpu_cluster.cpus.statIssuedInstType_0::SimdShaSigma2            0      0.00%     69.14% # Number of instructions issued per FU type, per thread (Count)
system.cpu_cluster.cpus.statIssuedInstType_0::SimdShaSigma3            0      0.00%     69.14% # Number of instructions issued per FU type, per thread (Count)
system.cpu_cluster.cpus.statIssuedInstType_0::SimdPredAlu            0      0.00%     69.14% # Number of instructions issued per FU type, per thread (Count)
system.cpu_cluster.cpus.statIssuedInstType_0::MemRead         2726     17.09%     86.23% # Number of instructions issued per FU type, per thread (Count)
system.cpu_cluster.cpus.statIssuedInstType_0::MemWrite         2197     13.77%    100.00% # Number of instructions issued per FU type, per thread (Count)
system.cpu_cluster.cpus.statIssuedInstType_0::FloatMemRead            0      0.00%    100.00% # Number of instructions issued per FU type, per thread (Count)
system.cpu_cluster.cpus.statIssuedInstType_0::FloatMemWrite            0      0.00%    100.00% # Number of instructions issued per FU type, per thread (Count)
system.cpu_cluster.cpus.statIssuedInstType_0::IprAccess            0      0.00%    100.00% # Number of instructions issued per FU type, per thread (Count)
system.cpu_cluster.cpus.statIssuedInstType_0::InstPrefetch            0      0.00%    100.00% # Number of instructions issued per FU type, per thread (Count)
system.cpu_cluster.cpus.statIssuedInstType_0::total        15952                       # Number of instructions issued per FU type, per thread (Count)
system.cpu_cluster.cpus.statIssuedInstType_1::No_OpClass            0                       # Number of instructions issued per FU type, per thread (Count)
system.cpu_cluster.cpus.statIssuedInstType_1::IntAlu            0                       # Number of instructions issued per FU type, per thread (Count)
system.cpu_cluster.cpus.statIssuedInstType_1::IntMult            0                       # Number of instructions issued per FU type, per thread (Count)
system.cpu_cluster.cpus.statIssuedInstType_1::IntDiv            0                       # Number of instructions issued per FU type, per thread (Count)
system.cpu_cluster.cpus.statIssuedInstType_1::FloatAdd            0                       # Number of instructions issued per FU type, per thread (Count)
system.cpu_cluster.cpus.statIssuedInstType_1::FloatCmp            0                       # Number of instructions issued per FU type, per thread (Count)
system.cpu_cluster.cpus.statIssuedInstType_1::FloatCvt            0                       # Number of instructions issued per FU type, per thread (Count)
system.cpu_cluster.cpus.statIssuedInstType_1::FloatMult            0                       # Number of instructions issued per FU type, per thread (Count)
system.cpu_cluster.cpus.statIssuedInstType_1::FloatMultAcc            0                       # Number of instructions issued per FU type, per thread (Count)
system.cpu_cluster.cpus.statIssuedInstType_1::FloatDiv            0                       # Number of instructions issued per FU type, per thread (Count)
system.cpu_cluster.cpus.statIssuedInstType_1::FloatMisc            0                       # Number of instructions issued per FU type, per thread (Count)
system.cpu_cluster.cpus.statIssuedInstType_1::FloatSqrt            0                       # Number of instructions issued per FU type, per thread (Count)
system.cpu_cluster.cpus.statIssuedInstType_1::SimdAdd            0                       # Number of instructions issued per FU type, per thread (Count)
system.cpu_cluster.cpus.statIssuedInstType_1::SimdAddAcc            0                       # Number of instructions issued per FU type, per thread (Count)
system.cpu_cluster.cpus.statIssuedInstType_1::SimdAlu            0                       # Number of instructions issued per FU type, per thread (Count)
system.cpu_cluster.cpus.statIssuedInstType_1::SimdCmp            0                       # Number of instructions issued per FU type, per thread (Count)
system.cpu_cluster.cpus.statIssuedInstType_1::SimdCvt            0                       # Number of instructions issued per FU type, per thread (Count)
system.cpu_cluster.cpus.statIssuedInstType_1::SimdMisc            0                       # Number of instructions issued per FU type, per thread (Count)
system.cpu_cluster.cpus.statIssuedInstType_1::SimdMult            0                       # Number of instructions issued per FU type, per thread (Count)
system.cpu_cluster.cpus.statIssuedInstType_1::SimdMultAcc            0                       # Number of instructions issued per FU type, per thread (Count)
system.cpu_cluster.cpus.statIssuedInstType_1::SimdShift            0                       # Number of instructions issued per FU type, per thread (Count)
system.cpu_cluster.cpus.statIssuedInstType_1::SimdShiftAcc            0                       # Number of instructions issued per FU type, per thread (Count)
system.cpu_cluster.cpus.statIssuedInstType_1::SimdDiv            0                       # Number of instructions issued per FU type, per thread (Count)
system.cpu_cluster.cpus.statIssuedInstType_1::SimdSqrt            0                       # Number of instructions issued per FU type, per thread (Count)
system.cpu_cluster.cpus.statIssuedInstType_1::SimdFloatAdd            0                       # Number of instructions issued per FU type, per thread (Count)
system.cpu_cluster.cpus.statIssuedInstType_1::SimdFloatAlu            0                       # Number of instructions issued per FU type, per thread (Count)
system.cpu_cluster.cpus.statIssuedInstType_1::SimdFloatCmp            0                       # Number of instructions issued per FU type, per thread (Count)
system.cpu_cluster.cpus.statIssuedInstType_1::SimdFloatCvt            0                       # Number of instructions issued per FU type, per thread (Count)
system.cpu_cluster.cpus.statIssuedInstType_1::SimdFloatDiv            0                       # Number of instructions issued per FU type, per thread (Count)
system.cpu_cluster.cpus.statIssuedInstType_1::SimdFloatMisc            0                       # Number of instructions issued per FU type, per thread (Count)
system.cpu_cluster.cpus.statIssuedInstType_1::SimdFloatMult            0                       # Number of instructions issued per FU type, per thread (Count)
system.cpu_cluster.cpus.statIssuedInstType_1::SimdFloatMultAcc            0                       # Number of instructions issued per FU type, per thread (Count)
system.cpu_cluster.cpus.statIssuedInstType_1::SimdFloatSqrt            0                       # Number of instructions issued per FU type, per thread (Count)
system.cpu_cluster.cpus.statIssuedInstType_1::SimdReduceAdd            0                       # Number of instructions issued per FU type, per thread (Count)
system.cpu_cluster.cpus.statIssuedInstType_1::SimdReduceAlu            0                       # Number of instructions issued per FU type, per thread (Count)
system.cpu_cluster.cpus.statIssuedInstType_1::SimdReduceCmp            0                       # Number of instructions issued per FU type, per thread (Count)
system.cpu_cluster.cpus.statIssuedInstType_1::SimdFloatReduceAdd            0                       # Number of instructions issued per FU type, per thread (Count)
system.cpu_cluster.cpus.statIssuedInstType_1::SimdFloatReduceCmp            0                       # Number of instructions issued per FU type, per thread (Count)
system.cpu_cluster.cpus.statIssuedInstType_1::SimdAes            0                       # Number of instructions issued per FU type, per thread (Count)
system.cpu_cluster.cpus.statIssuedInstType_1::SimdAesMix            0                       # Number of instructions issued per FU type, per thread (Count)
system.cpu_cluster.cpus.statIssuedInstType_1::SimdSha1Hash            0                       # Number of instructions issued per FU type, per thread (Count)
system.cpu_cluster.cpus.statIssuedInstType_1::SimdSha1Hash2            0                       # Number of instructions issued per FU type, per thread (Count)
system.cpu_cluster.cpus.statIssuedInstType_1::SimdSha256Hash            0                       # Number of instructions issued per FU type, per thread (Count)
system.cpu_cluster.cpus.statIssuedInstType_1::SimdSha256Hash2            0                       # Number of instructions issued per FU type, per thread (Count)
system.cpu_cluster.cpus.statIssuedInstType_1::SimdShaSigma2            0                       # Number of instructions issued per FU type, per thread (Count)
system.cpu_cluster.cpus.statIssuedInstType_1::SimdShaSigma3            0                       # Number of instructions issued per FU type, per thread (Count)
system.cpu_cluster.cpus.statIssuedInstType_1::SimdPredAlu            0                       # Number of instructions issued per FU type, per thread (Count)
system.cpu_cluster.cpus.statIssuedInstType_1::MemRead            0                       # Number of instructions issued per FU type, per thread (Count)
system.cpu_cluster.cpus.statIssuedInstType_1::MemWrite            0                       # Number of instructions issued per FU type, per thread (Count)
system.cpu_cluster.cpus.statIssuedInstType_1::FloatMemRead            0                       # Number of instructions issued per FU type, per thread (Count)
system.cpu_cluster.cpus.statIssuedInstType_1::FloatMemWrite            0                       # Number of instructions issued per FU type, per thread (Count)
system.cpu_cluster.cpus.statIssuedInstType_1::IprAccess            0                       # Number of instructions issued per FU type, per thread (Count)
system.cpu_cluster.cpus.statIssuedInstType_1::InstPrefetch            0                       # Number of instructions issued per FU type, per thread (Count)
system.cpu_cluster.cpus.statIssuedInstType_1::total            0                       # Number of instructions issued per FU type, per thread (Count)
system.cpu_cluster.cpus.statIssuedInstType_2::No_OpClass            0                       # Number of instructions issued per FU type, per thread (Count)
system.cpu_cluster.cpus.statIssuedInstType_2::IntAlu            0                       # Number of instructions issued per FU type, per thread (Count)
system.cpu_cluster.cpus.statIssuedInstType_2::IntMult            0                       # Number of instructions issued per FU type, per thread (Count)
system.cpu_cluster.cpus.statIssuedInstType_2::IntDiv            0                       # Number of instructions issued per FU type, per thread (Count)
system.cpu_cluster.cpus.statIssuedInstType_2::FloatAdd            0                       # Number of instructions issued per FU type, per thread (Count)
system.cpu_cluster.cpus.statIssuedInstType_2::FloatCmp            0                       # Number of instructions issued per FU type, per thread (Count)
system.cpu_cluster.cpus.statIssuedInstType_2::FloatCvt            0                       # Number of instructions issued per FU type, per thread (Count)
system.cpu_cluster.cpus.statIssuedInstType_2::FloatMult            0                       # Number of instructions issued per FU type, per thread (Count)
system.cpu_cluster.cpus.statIssuedInstType_2::FloatMultAcc            0                       # Number of instructions issued per FU type, per thread (Count)
system.cpu_cluster.cpus.statIssuedInstType_2::FloatDiv            0                       # Number of instructions issued per FU type, per thread (Count)
system.cpu_cluster.cpus.statIssuedInstType_2::FloatMisc            0                       # Number of instructions issued per FU type, per thread (Count)
system.cpu_cluster.cpus.statIssuedInstType_2::FloatSqrt            0                       # Number of instructions issued per FU type, per thread (Count)
system.cpu_cluster.cpus.statIssuedInstType_2::SimdAdd            0                       # Number of instructions issued per FU type, per thread (Count)
system.cpu_cluster.cpus.statIssuedInstType_2::SimdAddAcc            0                       # Number of instructions issued per FU type, per thread (Count)
system.cpu_cluster.cpus.statIssuedInstType_2::SimdAlu            0                       # Number of instructions issued per FU type, per thread (Count)
system.cpu_cluster.cpus.statIssuedInstType_2::SimdCmp            0                       # Number of instructions issued per FU type, per thread (Count)
system.cpu_cluster.cpus.statIssuedInstType_2::SimdCvt            0                       # Number of instructions issued per FU type, per thread (Count)
system.cpu_cluster.cpus.statIssuedInstType_2::SimdMisc            0                       # Number of instructions issued per FU type, per thread (Count)
system.cpu_cluster.cpus.statIssuedInstType_2::SimdMult            0                       # Number of instructions issued per FU type, per thread (Count)
system.cpu_cluster.cpus.statIssuedInstType_2::SimdMultAcc            0                       # Number of instructions issued per FU type, per thread (Count)
system.cpu_cluster.cpus.statIssuedInstType_2::SimdShift            0                       # Number of instructions issued per FU type, per thread (Count)
system.cpu_cluster.cpus.statIssuedInstType_2::SimdShiftAcc            0                       # Number of instructions issued per FU type, per thread (Count)
system.cpu_cluster.cpus.statIssuedInstType_2::SimdDiv            0                       # Number of instructions issued per FU type, per thread (Count)
system.cpu_cluster.cpus.statIssuedInstType_2::SimdSqrt            0                       # Number of instructions issued per FU type, per thread (Count)
system.cpu_cluster.cpus.statIssuedInstType_2::SimdFloatAdd            0                       # Number of instructions issued per FU type, per thread (Count)
system.cpu_cluster.cpus.statIssuedInstType_2::SimdFloatAlu            0                       # Number of instructions issued per FU type, per thread (Count)
system.cpu_cluster.cpus.statIssuedInstType_2::SimdFloatCmp            0                       # Number of instructions issued per FU type, per thread (Count)
system.cpu_cluster.cpus.statIssuedInstType_2::SimdFloatCvt            0                       # Number of instructions issued per FU type, per thread (Count)
system.cpu_cluster.cpus.statIssuedInstType_2::SimdFloatDiv            0                       # Number of instructions issued per FU type, per thread (Count)
system.cpu_cluster.cpus.statIssuedInstType_2::SimdFloatMisc            0                       # Number of instructions issued per FU type, per thread (Count)
system.cpu_cluster.cpus.statIssuedInstType_2::SimdFloatMult            0                       # Number of instructions issued per FU type, per thread (Count)
system.cpu_cluster.cpus.statIssuedInstType_2::SimdFloatMultAcc            0                       # Number of instructions issued per FU type, per thread (Count)
system.cpu_cluster.cpus.statIssuedInstType_2::SimdFloatSqrt            0                       # Number of instructions issued per FU type, per thread (Count)
system.cpu_cluster.cpus.statIssuedInstType_2::SimdReduceAdd            0                       # Number of instructions issued per FU type, per thread (Count)
system.cpu_cluster.cpus.statIssuedInstType_2::SimdReduceAlu            0                       # Number of instructions issued per FU type, per thread (Count)
system.cpu_cluster.cpus.statIssuedInstType_2::SimdReduceCmp            0                       # Number of instructions issued per FU type, per thread (Count)
system.cpu_cluster.cpus.statIssuedInstType_2::SimdFloatReduceAdd            0                       # Number of instructions issued per FU type, per thread (Count)
system.cpu_cluster.cpus.statIssuedInstType_2::SimdFloatReduceCmp            0                       # Number of instructions issued per FU type, per thread (Count)
system.cpu_cluster.cpus.statIssuedInstType_2::SimdAes            0                       # Number of instructions issued per FU type, per thread (Count)
system.cpu_cluster.cpus.statIssuedInstType_2::SimdAesMix            0                       # Number of instructions issued per FU type, per thread (Count)
system.cpu_cluster.cpus.statIssuedInstType_2::SimdSha1Hash            0                       # Number of instructions issued per FU type, per thread (Count)
system.cpu_cluster.cpus.statIssuedInstType_2::SimdSha1Hash2            0                       # Number of instructions issued per FU type, per thread (Count)
system.cpu_cluster.cpus.statIssuedInstType_2::SimdSha256Hash            0                       # Number of instructions issued per FU type, per thread (Count)
system.cpu_cluster.cpus.statIssuedInstType_2::SimdSha256Hash2            0                       # Number of instructions issued per FU type, per thread (Count)
system.cpu_cluster.cpus.statIssuedInstType_2::SimdShaSigma2            0                       # Number of instructions issued per FU type, per thread (Count)
system.cpu_cluster.cpus.statIssuedInstType_2::SimdShaSigma3            0                       # Number of instructions issued per FU type, per thread (Count)
system.cpu_cluster.cpus.statIssuedInstType_2::SimdPredAlu            0                       # Number of instructions issued per FU type, per thread (Count)
system.cpu_cluster.cpus.statIssuedInstType_2::MemRead            0                       # Number of instructions issued per FU type, per thread (Count)
system.cpu_cluster.cpus.statIssuedInstType_2::MemWrite            0                       # Number of instructions issued per FU type, per thread (Count)
system.cpu_cluster.cpus.statIssuedInstType_2::FloatMemRead            0                       # Number of instructions issued per FU type, per thread (Count)
system.cpu_cluster.cpus.statIssuedInstType_2::FloatMemWrite            0                       # Number of instructions issued per FU type, per thread (Count)
system.cpu_cluster.cpus.statIssuedInstType_2::IprAccess            0                       # Number of instructions issued per FU type, per thread (Count)
system.cpu_cluster.cpus.statIssuedInstType_2::InstPrefetch            0                       # Number of instructions issued per FU type, per thread (Count)
system.cpu_cluster.cpus.statIssuedInstType_2::total            0                       # Number of instructions issued per FU type, per thread (Count)
system.cpu_cluster.cpus.statIssuedInstType_3::No_OpClass            0                       # Number of instructions issued per FU type, per thread (Count)
system.cpu_cluster.cpus.statIssuedInstType_3::IntAlu            0                       # Number of instructions issued per FU type, per thread (Count)
system.cpu_cluster.cpus.statIssuedInstType_3::IntMult            0                       # Number of instructions issued per FU type, per thread (Count)
system.cpu_cluster.cpus.statIssuedInstType_3::IntDiv            0                       # Number of instructions issued per FU type, per thread (Count)
system.cpu_cluster.cpus.statIssuedInstType_3::FloatAdd            0                       # Number of instructions issued per FU type, per thread (Count)
system.cpu_cluster.cpus.statIssuedInstType_3::FloatCmp            0                       # Number of instructions issued per FU type, per thread (Count)
system.cpu_cluster.cpus.statIssuedInstType_3::FloatCvt            0                       # Number of instructions issued per FU type, per thread (Count)
system.cpu_cluster.cpus.statIssuedInstType_3::FloatMult            0                       # Number of instructions issued per FU type, per thread (Count)
system.cpu_cluster.cpus.statIssuedInstType_3::FloatMultAcc            0                       # Number of instructions issued per FU type, per thread (Count)
system.cpu_cluster.cpus.statIssuedInstType_3::FloatDiv            0                       # Number of instructions issued per FU type, per thread (Count)
system.cpu_cluster.cpus.statIssuedInstType_3::FloatMisc            0                       # Number of instructions issued per FU type, per thread (Count)
system.cpu_cluster.cpus.statIssuedInstType_3::FloatSqrt            0                       # Number of instructions issued per FU type, per thread (Count)
system.cpu_cluster.cpus.statIssuedInstType_3::SimdAdd            0                       # Number of instructions issued per FU type, per thread (Count)
system.cpu_cluster.cpus.statIssuedInstType_3::SimdAddAcc            0                       # Number of instructions issued per FU type, per thread (Count)
system.cpu_cluster.cpus.statIssuedInstType_3::SimdAlu            0                       # Number of instructions issued per FU type, per thread (Count)
system.cpu_cluster.cpus.statIssuedInstType_3::SimdCmp            0                       # Number of instructions issued per FU type, per thread (Count)
system.cpu_cluster.cpus.statIssuedInstType_3::SimdCvt            0                       # Number of instructions issued per FU type, per thread (Count)
system.cpu_cluster.cpus.statIssuedInstType_3::SimdMisc            0                       # Number of instructions issued per FU type, per thread (Count)
system.cpu_cluster.cpus.statIssuedInstType_3::SimdMult            0                       # Number of instructions issued per FU type, per thread (Count)
system.cpu_cluster.cpus.statIssuedInstType_3::SimdMultAcc            0                       # Number of instructions issued per FU type, per thread (Count)
system.cpu_cluster.cpus.statIssuedInstType_3::SimdShift            0                       # Number of instructions issued per FU type, per thread (Count)
system.cpu_cluster.cpus.statIssuedInstType_3::SimdShiftAcc            0                       # Number of instructions issued per FU type, per thread (Count)
system.cpu_cluster.cpus.statIssuedInstType_3::SimdDiv            0                       # Number of instructions issued per FU type, per thread (Count)
system.cpu_cluster.cpus.statIssuedInstType_3::SimdSqrt            0                       # Number of instructions issued per FU type, per thread (Count)
system.cpu_cluster.cpus.statIssuedInstType_3::SimdFloatAdd            0                       # Number of instructions issued per FU type, per thread (Count)
system.cpu_cluster.cpus.statIssuedInstType_3::SimdFloatAlu            0                       # Number of instructions issued per FU type, per thread (Count)
system.cpu_cluster.cpus.statIssuedInstType_3::SimdFloatCmp            0                       # Number of instructions issued per FU type, per thread (Count)
system.cpu_cluster.cpus.statIssuedInstType_3::SimdFloatCvt            0                       # Number of instructions issued per FU type, per thread (Count)
system.cpu_cluster.cpus.statIssuedInstType_3::SimdFloatDiv            0                       # Number of instructions issued per FU type, per thread (Count)
system.cpu_cluster.cpus.statIssuedInstType_3::SimdFloatMisc            0                       # Number of instructions issued per FU type, per thread (Count)
system.cpu_cluster.cpus.statIssuedInstType_3::SimdFloatMult            0                       # Number of instructions issued per FU type, per thread (Count)
system.cpu_cluster.cpus.statIssuedInstType_3::SimdFloatMultAcc            0                       # Number of instructions issued per FU type, per thread (Count)
system.cpu_cluster.cpus.statIssuedInstType_3::SimdFloatSqrt            0                       # Number of instructions issued per FU type, per thread (Count)
system.cpu_cluster.cpus.statIssuedInstType_3::SimdReduceAdd            0                       # Number of instructions issued per FU type, per thread (Count)
system.cpu_cluster.cpus.statIssuedInstType_3::SimdReduceAlu            0                       # Number of instructions issued per FU type, per thread (Count)
system.cpu_cluster.cpus.statIssuedInstType_3::SimdReduceCmp            0                       # Number of instructions issued per FU type, per thread (Count)
system.cpu_cluster.cpus.statIssuedInstType_3::SimdFloatReduceAdd            0                       # Number of instructions issued per FU type, per thread (Count)
system.cpu_cluster.cpus.statIssuedInstType_3::SimdFloatReduceCmp            0                       # Number of instructions issued per FU type, per thread (Count)
system.cpu_cluster.cpus.statIssuedInstType_3::SimdAes            0                       # Number of instructions issued per FU type, per thread (Count)
system.cpu_cluster.cpus.statIssuedInstType_3::SimdAesMix            0                       # Number of instructions issued per FU type, per thread (Count)
system.cpu_cluster.cpus.statIssuedInstType_3::SimdSha1Hash            0                       # Number of instructions issued per FU type, per thread (Count)
system.cpu_cluster.cpus.statIssuedInstType_3::SimdSha1Hash2            0                       # Number of instructions issued per FU type, per thread (Count)
system.cpu_cluster.cpus.statIssuedInstType_3::SimdSha256Hash            0                       # Number of instructions issued per FU type, per thread (Count)
system.cpu_cluster.cpus.statIssuedInstType_3::SimdSha256Hash2            0                       # Number of instructions issued per FU type, per thread (Count)
system.cpu_cluster.cpus.statIssuedInstType_3::SimdShaSigma2            0                       # Number of instructions issued per FU type, per thread (Count)
system.cpu_cluster.cpus.statIssuedInstType_3::SimdShaSigma3            0                       # Number of instructions issued per FU type, per thread (Count)
system.cpu_cluster.cpus.statIssuedInstType_3::SimdPredAlu            0                       # Number of instructions issued per FU type, per thread (Count)
system.cpu_cluster.cpus.statIssuedInstType_3::MemRead            0                       # Number of instructions issued per FU type, per thread (Count)
system.cpu_cluster.cpus.statIssuedInstType_3::MemWrite            0                       # Number of instructions issued per FU type, per thread (Count)
system.cpu_cluster.cpus.statIssuedInstType_3::FloatMemRead            0                       # Number of instructions issued per FU type, per thread (Count)
system.cpu_cluster.cpus.statIssuedInstType_3::FloatMemWrite            0                       # Number of instructions issued per FU type, per thread (Count)
system.cpu_cluster.cpus.statIssuedInstType_3::IprAccess            0                       # Number of instructions issued per FU type, per thread (Count)
system.cpu_cluster.cpus.statIssuedInstType_3::InstPrefetch            0                       # Number of instructions issued per FU type, per thread (Count)
system.cpu_cluster.cpus.statIssuedInstType_3::total            0                       # Number of instructions issued per FU type, per thread (Count)
system.cpu_cluster.cpus.statIssuedInstType::total        15952      0.00%      0.00% # Number of instructions issued per FU type, per thread (Count)
system.cpu_cluster.cpus.statFuBusyPerThread_0::No_OpClass            0      0.00%      0.00% # Number of instructions structural stalls per FU type, per thread (Count)
system.cpu_cluster.cpus.statFuBusyPerThread_0::IntAlu            0      0.00%      0.00% # Number of instructions structural stalls per FU type, per thread (Count)
system.cpu_cluster.cpus.statFuBusyPerThread_0::IntMult            0      0.00%      0.00% # Number of instructions structural stalls per FU type, per thread (Count)
system.cpu_cluster.cpus.statFuBusyPerThread_0::IntDiv            0      0.00%      0.00% # Number of instructions structural stalls per FU type, per thread (Count)
system.cpu_cluster.cpus.statFuBusyPerThread_0::FloatAdd            0      0.00%      0.00% # Number of instructions structural stalls per FU type, per thread (Count)
system.cpu_cluster.cpus.statFuBusyPerThread_0::FloatCmp            0      0.00%      0.00% # Number of instructions structural stalls per FU type, per thread (Count)
system.cpu_cluster.cpus.statFuBusyPerThread_0::FloatCvt            0      0.00%      0.00% # Number of instructions structural stalls per FU type, per thread (Count)
system.cpu_cluster.cpus.statFuBusyPerThread_0::FloatMult            0      0.00%      0.00% # Number of instructions structural stalls per FU type, per thread (Count)
system.cpu_cluster.cpus.statFuBusyPerThread_0::FloatMultAcc            0      0.00%      0.00% # Number of instructions structural stalls per FU type, per thread (Count)
system.cpu_cluster.cpus.statFuBusyPerThread_0::FloatDiv            0      0.00%      0.00% # Number of instructions structural stalls per FU type, per thread (Count)
system.cpu_cluster.cpus.statFuBusyPerThread_0::FloatMisc            0      0.00%      0.00% # Number of instructions structural stalls per FU type, per thread (Count)
system.cpu_cluster.cpus.statFuBusyPerThread_0::FloatSqrt            0      0.00%      0.00% # Number of instructions structural stalls per FU type, per thread (Count)
system.cpu_cluster.cpus.statFuBusyPerThread_0::SimdAdd            0      0.00%      0.00% # Number of instructions structural stalls per FU type, per thread (Count)
system.cpu_cluster.cpus.statFuBusyPerThread_0::SimdAddAcc            0      0.00%      0.00% # Number of instructions structural stalls per FU type, per thread (Count)
system.cpu_cluster.cpus.statFuBusyPerThread_0::SimdAlu            0      0.00%      0.00% # Number of instructions structural stalls per FU type, per thread (Count)
system.cpu_cluster.cpus.statFuBusyPerThread_0::SimdCmp            0      0.00%      0.00% # Number of instructions structural stalls per FU type, per thread (Count)
system.cpu_cluster.cpus.statFuBusyPerThread_0::SimdCvt            0      0.00%      0.00% # Number of instructions structural stalls per FU type, per thread (Count)
system.cpu_cluster.cpus.statFuBusyPerThread_0::SimdMisc            0      0.00%      0.00% # Number of instructions structural stalls per FU type, per thread (Count)
system.cpu_cluster.cpus.statFuBusyPerThread_0::SimdMult            0      0.00%      0.00% # Number of instructions structural stalls per FU type, per thread (Count)
system.cpu_cluster.cpus.statFuBusyPerThread_0::SimdMultAcc            0      0.00%      0.00% # Number of instructions structural stalls per FU type, per thread (Count)
system.cpu_cluster.cpus.statFuBusyPerThread_0::SimdShift            0      0.00%      0.00% # Number of instructions structural stalls per FU type, per thread (Count)
system.cpu_cluster.cpus.statFuBusyPerThread_0::SimdShiftAcc            0      0.00%      0.00% # Number of instructions structural stalls per FU type, per thread (Count)
system.cpu_cluster.cpus.statFuBusyPerThread_0::SimdDiv            0      0.00%      0.00% # Number of instructions structural stalls per FU type, per thread (Count)
system.cpu_cluster.cpus.statFuBusyPerThread_0::SimdSqrt            0      0.00%      0.00% # Number of instructions structural stalls per FU type, per thread (Count)
system.cpu_cluster.cpus.statFuBusyPerThread_0::SimdFloatAdd            0      0.00%      0.00% # Number of instructions structural stalls per FU type, per thread (Count)
system.cpu_cluster.cpus.statFuBusyPerThread_0::SimdFloatAlu            0      0.00%      0.00% # Number of instructions structural stalls per FU type, per thread (Count)
system.cpu_cluster.cpus.statFuBusyPerThread_0::SimdFloatCmp            0      0.00%      0.00% # Number of instructions structural stalls per FU type, per thread (Count)
system.cpu_cluster.cpus.statFuBusyPerThread_0::SimdFloatCvt            0      0.00%      0.00% # Number of instructions structural stalls per FU type, per thread (Count)
system.cpu_cluster.cpus.statFuBusyPerThread_0::SimdFloatDiv            0      0.00%      0.00% # Number of instructions structural stalls per FU type, per thread (Count)
system.cpu_cluster.cpus.statFuBusyPerThread_0::SimdFloatMisc            0      0.00%      0.00% # Number of instructions structural stalls per FU type, per thread (Count)
system.cpu_cluster.cpus.statFuBusyPerThread_0::SimdFloatMult            0      0.00%      0.00% # Number of instructions structural stalls per FU type, per thread (Count)
system.cpu_cluster.cpus.statFuBusyPerThread_0::SimdFloatMultAcc            0      0.00%      0.00% # Number of instructions structural stalls per FU type, per thread (Count)
system.cpu_cluster.cpus.statFuBusyPerThread_0::SimdFloatSqrt            0      0.00%      0.00% # Number of instructions structural stalls per FU type, per thread (Count)
system.cpu_cluster.cpus.statFuBusyPerThread_0::SimdReduceAdd            0      0.00%      0.00% # Number of instructions structural stalls per FU type, per thread (Count)
system.cpu_cluster.cpus.statFuBusyPerThread_0::SimdReduceAlu            0      0.00%      0.00% # Number of instructions structural stalls per FU type, per thread (Count)
system.cpu_cluster.cpus.statFuBusyPerThread_0::SimdReduceCmp            0      0.00%      0.00% # Number of instructions structural stalls per FU type, per thread (Count)
system.cpu_cluster.cpus.statFuBusyPerThread_0::SimdFloatReduceAdd            0      0.00%      0.00% # Number of instructions structural stalls per FU type, per thread (Count)
system.cpu_cluster.cpus.statFuBusyPerThread_0::SimdFloatReduceCmp            0      0.00%      0.00% # Number of instructions structural stalls per FU type, per thread (Count)
system.cpu_cluster.cpus.statFuBusyPerThread_0::SimdAes            0      0.00%      0.00% # Number of instructions structural stalls per FU type, per thread (Count)
system.cpu_cluster.cpus.statFuBusyPerThread_0::SimdAesMix            0      0.00%      0.00% # Number of instructions structural stalls per FU type, per thread (Count)
system.cpu_cluster.cpus.statFuBusyPerThread_0::SimdSha1Hash            0      0.00%      0.00% # Number of instructions structural stalls per FU type, per thread (Count)
system.cpu_cluster.cpus.statFuBusyPerThread_0::SimdSha1Hash2            0      0.00%      0.00% # Number of instructions structural stalls per FU type, per thread (Count)
system.cpu_cluster.cpus.statFuBusyPerThread_0::SimdSha256Hash            0      0.00%      0.00% # Number of instructions structural stalls per FU type, per thread (Count)
system.cpu_cluster.cpus.statFuBusyPerThread_0::SimdSha256Hash2            0      0.00%      0.00% # Number of instructions structural stalls per FU type, per thread (Count)
system.cpu_cluster.cpus.statFuBusyPerThread_0::SimdShaSigma2            0      0.00%      0.00% # Number of instructions structural stalls per FU type, per thread (Count)
system.cpu_cluster.cpus.statFuBusyPerThread_0::SimdShaSigma3            0      0.00%      0.00% # Number of instructions structural stalls per FU type, per thread (Count)
system.cpu_cluster.cpus.statFuBusyPerThread_0::SimdPredAlu            0      0.00%      0.00% # Number of instructions structural stalls per FU type, per thread (Count)
system.cpu_cluster.cpus.statFuBusyPerThread_0::MemRead            6    100.00%    100.00% # Number of instructions structural stalls per FU type, per thread (Count)
system.cpu_cluster.cpus.statFuBusyPerThread_0::MemWrite            0      0.00%    100.00% # Number of instructions structural stalls per FU type, per thread (Count)
system.cpu_cluster.cpus.statFuBusyPerThread_0::FloatMemRead            0      0.00%    100.00% # Number of instructions structural stalls per FU type, per thread (Count)
system.cpu_cluster.cpus.statFuBusyPerThread_0::FloatMemWrite            0      0.00%    100.00% # Number of instructions structural stalls per FU type, per thread (Count)
system.cpu_cluster.cpus.statFuBusyPerThread_0::IprAccess            0      0.00%    100.00% # Number of instructions structural stalls per FU type, per thread (Count)
system.cpu_cluster.cpus.statFuBusyPerThread_0::InstPrefetch            0      0.00%    100.00% # Number of instructions structural stalls per FU type, per thread (Count)
system.cpu_cluster.cpus.statFuBusyPerThread_0::total            6                       # Number of instructions structural stalls per FU type, per thread (Count)
system.cpu_cluster.cpus.statFuBusyPerThread_1::No_OpClass            0                       # Number of instructions structural stalls per FU type, per thread (Count)
system.cpu_cluster.cpus.statFuBusyPerThread_1::IntAlu            0                       # Number of instructions structural stalls per FU type, per thread (Count)
system.cpu_cluster.cpus.statFuBusyPerThread_1::IntMult            0                       # Number of instructions structural stalls per FU type, per thread (Count)
system.cpu_cluster.cpus.statFuBusyPerThread_1::IntDiv            0                       # Number of instructions structural stalls per FU type, per thread (Count)
system.cpu_cluster.cpus.statFuBusyPerThread_1::FloatAdd            0                       # Number of instructions structural stalls per FU type, per thread (Count)
system.cpu_cluster.cpus.statFuBusyPerThread_1::FloatCmp            0                       # Number of instructions structural stalls per FU type, per thread (Count)
system.cpu_cluster.cpus.statFuBusyPerThread_1::FloatCvt            0                       # Number of instructions structural stalls per FU type, per thread (Count)
system.cpu_cluster.cpus.statFuBusyPerThread_1::FloatMult            0                       # Number of instructions structural stalls per FU type, per thread (Count)
system.cpu_cluster.cpus.statFuBusyPerThread_1::FloatMultAcc            0                       # Number of instructions structural stalls per FU type, per thread (Count)
system.cpu_cluster.cpus.statFuBusyPerThread_1::FloatDiv            0                       # Number of instructions structural stalls per FU type, per thread (Count)
system.cpu_cluster.cpus.statFuBusyPerThread_1::FloatMisc            0                       # Number of instructions structural stalls per FU type, per thread (Count)
system.cpu_cluster.cpus.statFuBusyPerThread_1::FloatSqrt            0                       # Number of instructions structural stalls per FU type, per thread (Count)
system.cpu_cluster.cpus.statFuBusyPerThread_1::SimdAdd            0                       # Number of instructions structural stalls per FU type, per thread (Count)
system.cpu_cluster.cpus.statFuBusyPerThread_1::SimdAddAcc            0                       # Number of instructions structural stalls per FU type, per thread (Count)
system.cpu_cluster.cpus.statFuBusyPerThread_1::SimdAlu            0                       # Number of instructions structural stalls per FU type, per thread (Count)
system.cpu_cluster.cpus.statFuBusyPerThread_1::SimdCmp            0                       # Number of instructions structural stalls per FU type, per thread (Count)
system.cpu_cluster.cpus.statFuBusyPerThread_1::SimdCvt            0                       # Number of instructions structural stalls per FU type, per thread (Count)
system.cpu_cluster.cpus.statFuBusyPerThread_1::SimdMisc            0                       # Number of instructions structural stalls per FU type, per thread (Count)
system.cpu_cluster.cpus.statFuBusyPerThread_1::SimdMult            0                       # Number of instructions structural stalls per FU type, per thread (Count)
system.cpu_cluster.cpus.statFuBusyPerThread_1::SimdMultAcc            0                       # Number of instructions structural stalls per FU type, per thread (Count)
system.cpu_cluster.cpus.statFuBusyPerThread_1::SimdShift            0                       # Number of instructions structural stalls per FU type, per thread (Count)
system.cpu_cluster.cpus.statFuBusyPerThread_1::SimdShiftAcc            0                       # Number of instructions structural stalls per FU type, per thread (Count)
system.cpu_cluster.cpus.statFuBusyPerThread_1::SimdDiv            0                       # Number of instructions structural stalls per FU type, per thread (Count)
system.cpu_cluster.cpus.statFuBusyPerThread_1::SimdSqrt            0                       # Number of instructions structural stalls per FU type, per thread (Count)
system.cpu_cluster.cpus.statFuBusyPerThread_1::SimdFloatAdd            0                       # Number of instructions structural stalls per FU type, per thread (Count)
system.cpu_cluster.cpus.statFuBusyPerThread_1::SimdFloatAlu            0                       # Number of instructions structural stalls per FU type, per thread (Count)
system.cpu_cluster.cpus.statFuBusyPerThread_1::SimdFloatCmp            0                       # Number of instructions structural stalls per FU type, per thread (Count)
system.cpu_cluster.cpus.statFuBusyPerThread_1::SimdFloatCvt            0                       # Number of instructions structural stalls per FU type, per thread (Count)
system.cpu_cluster.cpus.statFuBusyPerThread_1::SimdFloatDiv            0                       # Number of instructions structural stalls per FU type, per thread (Count)
system.cpu_cluster.cpus.statFuBusyPerThread_1::SimdFloatMisc            0                       # Number of instructions structural stalls per FU type, per thread (Count)
system.cpu_cluster.cpus.statFuBusyPerThread_1::SimdFloatMult            0                       # Number of instructions structural stalls per FU type, per thread (Count)
system.cpu_cluster.cpus.statFuBusyPerThread_1::SimdFloatMultAcc            0                       # Number of instructions structural stalls per FU type, per thread (Count)
system.cpu_cluster.cpus.statFuBusyPerThread_1::SimdFloatSqrt            0                       # Number of instructions structural stalls per FU type, per thread (Count)
system.cpu_cluster.cpus.statFuBusyPerThread_1::SimdReduceAdd            0                       # Number of instructions structural stalls per FU type, per thread (Count)
system.cpu_cluster.cpus.statFuBusyPerThread_1::SimdReduceAlu            0                       # Number of instructions structural stalls per FU type, per thread (Count)
system.cpu_cluster.cpus.statFuBusyPerThread_1::SimdReduceCmp            0                       # Number of instructions structural stalls per FU type, per thread (Count)
system.cpu_cluster.cpus.statFuBusyPerThread_1::SimdFloatReduceAdd            0                       # Number of instructions structural stalls per FU type, per thread (Count)
system.cpu_cluster.cpus.statFuBusyPerThread_1::SimdFloatReduceCmp            0                       # Number of instructions structural stalls per FU type, per thread (Count)
system.cpu_cluster.cpus.statFuBusyPerThread_1::SimdAes            0                       # Number of instructions structural stalls per FU type, per thread (Count)
system.cpu_cluster.cpus.statFuBusyPerThread_1::SimdAesMix            0                       # Number of instructions structural stalls per FU type, per thread (Count)
system.cpu_cluster.cpus.statFuBusyPerThread_1::SimdSha1Hash            0                       # Number of instructions structural stalls per FU type, per thread (Count)
system.cpu_cluster.cpus.statFuBusyPerThread_1::SimdSha1Hash2            0                       # Number of instructions structural stalls per FU type, per thread (Count)
system.cpu_cluster.cpus.statFuBusyPerThread_1::SimdSha256Hash            0                       # Number of instructions structural stalls per FU type, per thread (Count)
system.cpu_cluster.cpus.statFuBusyPerThread_1::SimdSha256Hash2            0                       # Number of instructions structural stalls per FU type, per thread (Count)
system.cpu_cluster.cpus.statFuBusyPerThread_1::SimdShaSigma2            0                       # Number of instructions structural stalls per FU type, per thread (Count)
system.cpu_cluster.cpus.statFuBusyPerThread_1::SimdShaSigma3            0                       # Number of instructions structural stalls per FU type, per thread (Count)
system.cpu_cluster.cpus.statFuBusyPerThread_1::SimdPredAlu            0                       # Number of instructions structural stalls per FU type, per thread (Count)
system.cpu_cluster.cpus.statFuBusyPerThread_1::MemRead            0                       # Number of instructions structural stalls per FU type, per thread (Count)
system.cpu_cluster.cpus.statFuBusyPerThread_1::MemWrite            0                       # Number of instructions structural stalls per FU type, per thread (Count)
system.cpu_cluster.cpus.statFuBusyPerThread_1::FloatMemRead            0                       # Number of instructions structural stalls per FU type, per thread (Count)
system.cpu_cluster.cpus.statFuBusyPerThread_1::FloatMemWrite            0                       # Number of instructions structural stalls per FU type, per thread (Count)
system.cpu_cluster.cpus.statFuBusyPerThread_1::IprAccess            0                       # Number of instructions structural stalls per FU type, per thread (Count)
system.cpu_cluster.cpus.statFuBusyPerThread_1::InstPrefetch            0                       # Number of instructions structural stalls per FU type, per thread (Count)
system.cpu_cluster.cpus.statFuBusyPerThread_1::total            0                       # Number of instructions structural stalls per FU type, per thread (Count)
system.cpu_cluster.cpus.statFuBusyPerThread_2::No_OpClass            0                       # Number of instructions structural stalls per FU type, per thread (Count)
system.cpu_cluster.cpus.statFuBusyPerThread_2::IntAlu            0                       # Number of instructions structural stalls per FU type, per thread (Count)
system.cpu_cluster.cpus.statFuBusyPerThread_2::IntMult            0                       # Number of instructions structural stalls per FU type, per thread (Count)
system.cpu_cluster.cpus.statFuBusyPerThread_2::IntDiv            0                       # Number of instructions structural stalls per FU type, per thread (Count)
system.cpu_cluster.cpus.statFuBusyPerThread_2::FloatAdd            0                       # Number of instructions structural stalls per FU type, per thread (Count)
system.cpu_cluster.cpus.statFuBusyPerThread_2::FloatCmp            0                       # Number of instructions structural stalls per FU type, per thread (Count)
system.cpu_cluster.cpus.statFuBusyPerThread_2::FloatCvt            0                       # Number of instructions structural stalls per FU type, per thread (Count)
[...]
system.mem_ctrls1.dram.perBankRdBursts::16            0                       # Per bank write bursts (Count)
system.mem_ctrls1.dram.perBankRdBursts::17            0                       # Per bank write bursts (Count)
system.mem_ctrls1.dram.perBankRdBursts::18            0                       # Per bank write bursts (Count)
system.mem_ctrls1.dram.perBankRdBursts::19            4                       # Per bank write bursts (Count)
system.mem_ctrls1.dram.perBankRdBursts::20            9                       # Per bank write bursts (Count)
system.mem_ctrls1.dram.perBankRdBursts::21            4                       # Per bank write bursts (Count)
system.mem_ctrls1.dram.perBankRdBursts::22           16                       # Per bank write bursts (Count)
system.mem_ctrls1.dram.perBankRdBursts::23            4                       # Per bank write bursts (Count)
system.mem_ctrls1.dram.perBankRdBursts::24            1                       # Per bank write bursts (Count)
system.mem_ctrls1.dram.perBankRdBursts::25            0                       # Per bank write bursts (Count)
system.mem_ctrls1.dram.perBankRdBursts::26            0                       # Per bank write bursts (Count)
system.mem_ctrls1.dram.perBankRdBursts::27            3                       # Per bank write bursts (Count)
system.mem_ctrls1.dram.perBankRdBursts::28            3                       # Per bank write bursts (Count)
system.mem_ctrls1.dram.perBankRdBursts::29            0                       # Per bank write bursts (Count)
system.mem_ctrls1.dram.perBankRdBursts::30            0                       # Per bank write bursts (Count)
system.mem_ctrls1.dram.perBankRdBursts::31            0                       # Per bank write bursts (Count)
system.mem_ctrls1.dram.perBankWrBursts::0            0                       # Per bank write bursts (Count)
system.mem_ctrls1.dram.perBankWrBursts::1            0                       # Per bank write bursts (Count)
system.mem_ctrls1.dram.perBankWrBursts::2            0                       # Per bank write bursts (Count)
system.mem_ctrls1.dram.perBankWrBursts::3            0                       # Per bank write bursts (Count)
system.mem_ctrls1.dram.perBankWrBursts::4            0                       # Per bank write bursts (Count)
system.mem_ctrls1.dram.perBankWrBursts::5            0                       # Per bank write bursts (Count)
system.mem_ctrls1.dram.perBankWrBursts::6            0                       # Per bank write bursts (Count)
system.mem_ctrls1.dram.perBankWrBursts::7            0                       # Per bank write bursts (Count)
system.mem_ctrls1.dram.perBankWrBursts::8            0                       # Per bank write bursts (Count)
system.mem_ctrls1.dram.perBankWrBursts::9            0                       # Per bank write bursts (Count)
system.mem_ctrls1.dram.perBankWrBursts::10            0                       # Per bank write bursts (Count)
system.mem_ctrls1.dram.perBankWrBursts::11            0                       # Per bank write bursts (Count)
system.mem_ctrls1.dram.perBankWrBursts::12            0                       # Per bank write bursts (Count)
system.mem_ctrls1.dram.perBankWrBursts::13            0                       # Per bank write bursts (Count)
system.mem_ctrls1.dram.perBankWrBursts::14            0                       # Per bank write bursts (Count)
system.mem_ctrls1.dram.perBankWrBursts::15            0                       # Per bank write bursts (Count)
system.mem_ctrls1.dram.perBankWrBursts::16            0                       # Per bank write bursts (Count)
system.mem_ctrls1.dram.perBankWrBursts::17            0                       # Per bank write bursts (Count)
system.mem_ctrls1.dram.perBankWrBursts::18            0                       # Per bank write bursts (Count)
system.mem_ctrls1.dram.perBankWrBursts::19            0                       # Per bank write bursts (Count)
system.mem_ctrls1.dram.perBankWrBursts::20            0                       # Per bank write bursts (Count)
system.mem_ctrls1.dram.perBankWrBursts::21            0                       # Per bank write bursts (Count)
system.mem_ctrls1.dram.perBankWrBursts::22            0                       # Per bank write bursts (Count)
system.mem_ctrls1.dram.perBankWrBursts::23            0                       # Per bank write bursts (Count)
system.mem_ctrls1.dram.perBankWrBursts::24            0                       # Per bank write bursts (Count)
system.mem_ctrls1.dram.perBankWrBursts::25            0                       # Per bank write bursts (Count)
system.mem_ctrls1.dram.perBankWrBursts::26            0                       # Per bank write bursts (Count)
system.mem_ctrls1.dram.perBankWrBursts::27            0                       # Per bank write bursts (Count)
system.mem_ctrls1.dram.perBankWrBursts::28            0                       # Per bank write bursts (Count)
system.mem_ctrls1.dram.perBankWrBursts::29            0                       # Per bank write bursts (Count)
system.mem_ctrls1.dram.perBankWrBursts::30            0                       # Per bank write bursts (Count)
system.mem_ctrls1.dram.perBankWrBursts::31            0                       # Per bank write bursts (Count)
system.mem_ctrls1.dram.totQLat                3560135                       # Total ticks spent queuing (Tick)
system.mem_ctrls1.dram.totBusLat              1362788                       # Total ticks spent in databus transfers (Tick)
system.mem_ctrls1.dram.totMemAccLat          10714363                       # Total ticks spent from burst creation until serviced by the DRAM (Tick)
system.mem_ctrls1.dram.avgQLat                8704.49                       # Average queueing delay per DRAM burst ((Tick/Count))
system.mem_ctrls1.dram.avgBusLat              3332.00                       # Average bus latency per DRAM burst ((Tick/Count))
system.mem_ctrls1.dram.avgMemAccLat          26196.49                       # Average memory access latency per DRAM burst ((Tick/Count))
system.mem_ctrls1.dram.readRowHits                314                       # Number of row buffer hits during reads (Count)
system.mem_ctrls1.dram.writeRowHits                 0                       # Number of row buffer hits during writes (Count)
system.mem_ctrls1.dram.readRowHitRate           76.77                       # Row buffer hit rate for reads (Ratio)
system.mem_ctrls1.dram.writeRowHitRate            nan                       # Row buffer hit rate for writes (Ratio)
system.mem_ctrls1.dram.bytesPerActivate::samples           87                       # Bytes accessed per row activation (Byte)
system.mem_ctrls1.dram.bytesPerActivate::mean   281.011494                       # Bytes accessed per row activation (Byte)
system.mem_ctrls1.dram.bytesPerActivate::gmean   176.022520                       # Bytes accessed per row activation (Byte)
system.mem_ctrls1.dram.bytesPerActivate::stdev   298.493095                       # Bytes accessed per row activation (Byte)
system.mem_ctrls1.dram.bytesPerActivate::0-127           29     33.33%     33.33% # Bytes accessed per row activation (Byte)
system.mem_ctrls1.dram.bytesPerActivate::128-255           26     29.89%     63.22% # Bytes accessed per row activation (Byte)
system.mem_ctrls1.dram.bytesPerActivate::256-383           12     13.79%     77.01% # Bytes accessed per row activation (Byte)
system.mem_ctrls1.dram.bytesPerActivate::384-511            3      3.45%     80.46% # Bytes accessed per row activation (Byte)
system.mem_ctrls1.dram.bytesPerActivate::512-639            4      4.60%     85.06% # Bytes accessed per row activation (Byte)
system.mem_ctrls1.dram.bytesPerActivate::640-767            1      1.15%     86.21% # Bytes accessed per row activation (Byte)
system.mem_ctrls1.dram.bytesPerActivate::768-895            4      4.60%     90.80% # Bytes accessed per row activation (Byte)
system.mem_ctrls1.dram.bytesPerActivate::896-1023            1      1.15%     91.95% # Bytes accessed per row activation (Byte)
system.mem_ctrls1.dram.bytesPerActivate::1024-1151            7      8.05%    100.00% # Bytes accessed per row activation (Byte)
system.mem_ctrls1.dram.bytesPerActivate::total           87                       # Bytes accessed per row activation (Byte)
system.mem_ctrls1.dram.bytesRead                26176                       # Total bytes read (Byte)
system.mem_ctrls1.dram.bytesWritten                 0                       # Total bytes written (Byte)
system.mem_ctrls1.dram.avgRdBW            1006.014720                       # Average DRAM read bandwidth in MiBytes/s ((Byte/Second))
system.mem_ctrls1.dram.avgWrBW                      0                       # Average DRAM write bandwidth in MiBytes/s ((Byte/Second))
system.mem_ctrls1.dram.peakBW                19207.00                       # Theoretical peak bandwidth in MiByte/s ((Byte/Second))
system.mem_ctrls1.dram.busUtil                   5.24                       # Data bus utilization in percentage (Ratio)
system.mem_ctrls1.dram.busUtilRead               5.24                       # Data bus utilization in percentage for reads (Ratio)
system.mem_ctrls1.dram.busUtilWrite              0.00                       # Data bus utilization in percentage for writes (Ratio)
system.mem_ctrls1.dram.pageHitRate              76.77                       # Row buffer hit rate, read and write combined (Ratio)
system.mem_ctrls1.dram.power_state.pwrStateResidencyTicks::UNDEFINED     26019500                       # Cumulative time (in ticks) in various power states (Tick)
system.mem_ctrls1.dram.rank0.actEnergy   252618.912000                       # Energy for activate commands per rank (pJ) (Joule)
system.mem_ctrls1.dram.rank0.preEnergy   310975.560000                       # Energy for precharge commands per rank (pJ) (Joule)
system.mem_ctrls1.dram.rank0.readEnergy  1535305.632000                       # Energy for read commands per rank (pJ) (Joule)
system.mem_ctrls1.dram.rank0.writeEnergy            0                       # Energy for write commands per rank (pJ) (Joule)
system.mem_ctrls1.dram.rank0.refreshEnergy 4156132.881600                       # Energy for refresh commands per rank (pJ) (Joule)
system.mem_ctrls1.dram.rank0.actBackEnergy 21963990.888000                       # Energy for active background per rank (pJ) (Joule)
system.mem_ctrls1.dram.rank0.preBackEnergy 109300.262400                       # Energy for precharge background per rank (pJ) (Joule)
system.mem_ctrls1.dram.rank0.actPowerDownEnergy            0                       # Energy for active power-down per rank (pJ) (Joule)
system.mem_ctrls1.dram.rank0.prePowerDownEnergy            0                       # Energy for precharge power-down per rank (pJ) (Joule)
system.mem_ctrls1.dram.rank0.selfRefreshEnergy            0                       # Energy for self refresh per rank (pJ) (Joule)
system.mem_ctrls1.dram.rank0.totalEnergy 28328324.136000                       # Total energy per rank (pJ) (Joule)
system.mem_ctrls1.dram.rank0.averagePower  1088.734378                       # Core power per rank (mW) (Watt)
system.mem_ctrls1.dram.rank0.totalIdleTime            0                       # Total Idle time Per DRAM Rank (Tick)
system.mem_ctrls1.dram.rank0.pwrStateTime::IDLE        84250                       # Time in different power states (Tick)
system.mem_ctrls1.dram.rank0.pwrStateTime::REF      1050000                       # Time in different power states (Tick)
system.mem_ctrls1.dram.rank0.pwrStateTime::SREF            0                       # Time in different power states (Tick)
system.mem_ctrls1.dram.rank0.pwrStateTime::PRE_PDN            0                       # Time in different power states (Tick)
system.mem_ctrls1.dram.rank0.pwrStateTime::ACT     24885250                       # Time in different power states (Tick)
system.mem_ctrls1.dram.rank0.pwrStateTime::ACT_PDN            0                       # Time in different power states (Tick)
system.mem_ctrls1.dram.rank1.actEnergy   43662.528000                       # Energy for activate commands per rank (pJ) (Joule)
system.mem_ctrls1.dram.rank1.preEnergy   49756.089600                       # Energy for precharge commands per rank (pJ) (Joule)
system.mem_ctrls1.dram.rank1.readEnergy  185077.939200                       # Energy for read commands per rank (pJ) (Joule)
system.mem_ctrls1.dram.rank1.writeEnergy            0                       # Energy for write commands per rank (pJ) (Joule)
system.mem_ctrls1.dram.rank1.refreshEnergy 4156132.881600                       # Energy for refresh commands per rank (pJ) (Joule)
system.mem_ctrls1.dram.rank1.actBackEnergy 16900984.900800                       # Energy for active background per rank (pJ) (Joule)
system.mem_ctrls1.dram.rank1.preBackEnergy 3999519.552000                       # Energy for precharge background per rank (pJ) (Joule)
system.mem_ctrls1.dram.rank1.actPowerDownEnergy            0                       # Energy for active power-down per rank (pJ) (Joule)
system.mem_ctrls1.dram.rank1.prePowerDownEnergy            0                       # Energy for precharge power-down per rank (pJ) (Joule)
system.mem_ctrls1.dram.rank1.selfRefreshEnergy            0                       # Energy for self refresh per rank (pJ) (Joule)
system.mem_ctrls1.dram.rank1.totalEnergy 25335133.891200                       # Total energy per rank (pJ) (Joule)
system.mem_ctrls1.dram.rank1.averagePower   973.697953                       # Core power per rank (mW) (Watt)
system.mem_ctrls1.dram.rank1.totalIdleTime            0                       # Total Idle time Per DRAM Rank (Tick)
system.mem_ctrls1.dram.rank1.pwrStateTime::IDLE      6043480                       # Time in different power states (Tick)
system.mem_ctrls1.dram.rank1.pwrStateTime::REF      1050000                       # Time in different power states (Tick)
system.mem_ctrls1.dram.rank1.pwrStateTime::SREF            0                       # Time in different power states (Tick)
system.mem_ctrls1.dram.rank1.pwrStateTime::PRE_PDN            0                       # Time in different power states (Tick)
system.mem_ctrls1.dram.rank1.pwrStateTime::ACT     18926020                       # Time in different power states (Tick)
system.mem_ctrls1.dram.rank1.pwrStateTime::ACT_PDN            0                       # Time in different power states (Tick)
system.mem_ctrls1.power_state.pwrStateResidencyTicks::UNDEFINED     26019500                       # Cumulative time (in ticks) in various power states (Tick)
system.membus.transDist::ReadResp                 721                       # Transaction distribution (Count)
system.membus.transDist::ReadExReq                 87                       # Transaction distribution (Count)
system.membus.transDist::ReadExResp                87                       # Transaction distribution (Count)
system.membus.transDist::ReadCleanReq             722                       # Transaction distribution (Count)
system.membus.transDist::InvalidateReq              7                       # Transaction distribution (Count)
system.membus.pktCount_system.cpu_cluster.l2.mem_side_port::system.mem_ctrls0.port          804                       # Packet count per connected requestor and responder (Count)
system.membus.pktCount_system.cpu_cluster.l2.mem_side_port::system.mem_ctrls1.port          820                       # Packet count per connected requestor and responder (Count)
system.membus.pktCount_system.cpu_cluster.l2.mem_side_port::total         1624                       # Packet count per connected requestor and responder (Count)
system.membus.pktCount::total                    1624                       # Packet count per connected requestor and responder (Count)
system.membus.pktSize_system.cpu_cluster.l2.mem_side_port::system.mem_ctrls0.port        25600                       # Cumulative packet size per connected requestor and responder (Byte)
system.membus.pktSize_system.cpu_cluster.l2.mem_side_port::system.mem_ctrls1.port        26112                       # Cumulative packet size per connected requestor and responder (Byte)
system.membus.pktSize_system.cpu_cluster.l2.mem_side_port::total        51712                       # Cumulative packet size per connected requestor and responder (Byte)
system.membus.pktSize::total                    51712                       # Cumulative packet size per connected requestor and responder (Byte)
system.membus.snoops                                0                       # Total snoops (Count)
system.membus.snoopTraffic                          0                       # Total snoop traffic (Byte)
system.membus.snoopFanout::samples                816                       # Request fanout histogram (Count)
system.membus.snoopFanout::mean                     0                       # Request fanout histogram (Count)
system.membus.snoopFanout::stdev                    0                       # Request fanout histogram (Count)
system.membus.snoopFanout::underflows               0      0.00%      0.00% # Request fanout histogram (Count)
system.membus.snoopFanout::0                      816    100.00%    100.00% # Request fanout histogram (Count)
system.membus.snoopFanout::1                        0      0.00%    100.00% # Request fanout histogram (Count)
system.membus.snoopFanout::overflows                0      0.00%    100.00% # Request fanout histogram (Count)
system.membus.snoopFanout::min_value                0                       # Request fanout histogram (Count)
system.membus.snoopFanout::max_value                0                       # Request fanout histogram (Count)
system.membus.snoopFanout::total                  816                       # Request fanout histogram (Count)
system.membus.power_state.pwrStateResidencyTicks::UNDEFINED     26019500                       # Cumulative time (in ticks) in various power states (Tick)
system.membus.reqLayer0.occupancy              556916                       # Layer occupancy (ticks) (Tick)
system.membus.reqLayer0.utilization               0.0                       # Layer utilization (Ratio)
system.membus.reqLayer1.occupancy              578675                       # Layer occupancy (ticks) (Tick)
system.membus.reqLayer1.utilization               0.0                       # Layer utilization (Ratio)
system.membus.respLayer1.occupancy            4279843                       # Layer occupancy (ticks) (Tick)
system.membus.respLayer1.utilization              0.2                       # Layer utilization (Ratio)
system.membus.snoop_filter.totRequests            816                       # Total number of requests made to the snoop filter. (Count)
system.membus.snoop_filter.hitSingleRequests            2                       # Number of requests hitting in the snoop filter with a single holder of the requested data. (Count)
system.membus.snoop_filter.hitMultiRequests            0                       # Number of requests hitting in the snoop filter with multiple (>1) holders of the requested data. (Count)
system.membus.snoop_filter.totSnoops                0                       # Total number of snoops made to the snoop filter. (Count)
system.membus.snoop_filter.hitSingleSnoops            0                       # Number of snoops hitting in the snoop filter with a single holder of the requested data. (Count)
system.membus.snoop_filter.hitMultiSnoops            0                       # Number of snoops hitting in the snoop filter with multiple (>1) holders of the requested data. (Count)
system.voltage_domain.voltage                3.300000                       # Voltage in Volts (Volt)
system.workload.inst.arm                            0                       # number of arm instructions executed (Count)
system.workload.inst.quiesce                        0                       # number of quiesce instructions executed (Count)

---------- End Simulation Statistics   ----------
