
---------- Begin Simulation Statistics ----------
simSeconds                                   0.000058                       # Number of seconds simulated (Second)
simTicks                                     57992250                       # Number of ticks simulated (Tick)
finalTick                                    57992250                       # Number of ticks from beginning of simulation (restored from checkpoints and never reset) (Tick)
simFreq                                  1000000000000                       # The number of ticks per simulated second ((Tick/Second))
hostSeconds                                      2.28                       # Real time elapsed on the host (Second)
hostTickRate                                 25437642                       # The number of ticks simulated per host second (ticks/s) ((Tick/Second))
hostMemory                                    2260892                       # Number of bytes of host memory used (Byte)
simInsts                                       301316                       # Number of instructions simulated (Count)
simOps                                         343980                       # Number of ops (including micro ops) simulated (Count)
hostInstRate                                   132165                       # Simulator instruction rate (inst/s) ((Count/Second))
hostOpRate                                     150878                       # Simulator op (including micro ops) rate (op/s) ((Count/Second))
system.clk_domain.clock                          1000                       # Clock period in ticks (Tick)
system.cpu_cluster.clk_domain.clock               250                       # Clock period in ticks (Tick)
system.cpu_cluster.cpus.numCycles              231970                       # Number of cpu cycles simulated (Cycle)
system.cpu_cluster.cpus.numWorkItemsStarted            0                       # Number of work items this cpu started (Count)
system.cpu_cluster.cpus.numWorkItemsCompleted            0                       # Number of work items this cpu completed (Count)
system.cpu_cluster.cpus.instsAdded             357210                       # Number of instructions added to the IQ (excludes non-spec) (Count)
system.cpu_cluster.cpus.nonSpecInstsAdded           52                       # Number of non-speculative instructions added to the IQ (Count)
system.cpu_cluster.cpus.instsIssued            356332                       # Number of instructions issued (Count)
system.cpu_cluster.cpus.NoReadyInst            111639                       # No instructions ready in this cycle (Count)
system.cpu_cluster.cpus.ReadyInstMoreThanBW        51468                       # More ready instructions than available bandwidth (Count)
system.cpu_cluster.cpus.squashedInstsIssued          328                       # Number of squashed instructions issued (Count)
system.cpu_cluster.cpus.squashedInstsExamined        13271                       # Number of squashed instructions iterated over during squash; mainly for profiling (Count)
system.cpu_cluster.cpus.squashedOperandsExamined         8024                       # Number of squashed operands that are examined and possibly removed from graph (Count)
system.cpu_cluster.cpus.squashedNonSpecRemoved           15                       # Number of squashed non-spec instructions that were removed (Count)
system.cpu_cluster.cpus.fuBusyS                  1050                       # FU busy when requested (Count)
system.cpu_cluster.cpus.numIssuedDist::samples       231970                       # Number of insts issued each cycle (Count)
system.cpu_cluster.cpus.numIssuedDist::mean     1.536112                       # Number of insts issued each cycle (Count)
system.cpu_cluster.cpus.numIssuedDist::stdev     1.670345                       # Number of insts issued each cycle (Count)
system.cpu_cluster.cpus.numIssuedDist::underflows            0      0.00%      0.00% # Number of insts issued each cycle (Count)
system.cpu_cluster.cpus.numIssuedDist::0       111639     48.13%     48.13% # Number of insts issued each cycle (Count)
system.cpu_cluster.cpus.numIssuedDist::1        15981      6.89%     55.02% # Number of insts issued each cycle (Count)
system.cpu_cluster.cpus.numIssuedDist::2        24167     10.42%     65.43% # Number of insts issued each cycle (Count)
system.cpu_cluster.cpus.numIssuedDist::3        28715     12.38%     77.81% # Number of insts issued each cycle (Count)
system.cpu_cluster.cpus.numIssuedDist::4        51468     22.19%    100.00% # Number of insts issued each cycle (Count)
system.cpu_cluster.cpus.numIssuedDist::overflows            0      0.00%    100.00% # Number of insts issued each cycle (Count)
system.cpu_cluster.cpus.numIssuedDist::min_value            0                       # Number of insts issued each cycle (Count)
system.cpu_cluster.cpus.numIssuedDist::max_value            4                       # Number of insts issued each cycle (Count)
system.cpu_cluster.cpus.numIssuedDist::total       231970                       # Number of insts issued each cycle (Count)
system.cpu_cluster.cpus.statFuBusy::No_OpClass            0      0.00%      0.00% # attempts to use FU when none available (Count)
system.cpu_cluster.cpus.statFuBusy::IntAlu            0      0.00%      0.00% # attempts to use FU when none available (Count)
system.cpu_cluster.cpus.statFuBusy::IntMult            0      0.00%      0.00% # attempts to use FU when none available (Count)
system.cpu_cluster.cpus.statFuBusy::IntDiv           12      1.14%      1.14% # attempts to use FU when none available (Count)
system.cpu_cluster.cpus.statFuBusy::FloatAdd            0      0.00%      1.14% # attempts to use FU when none available (Count)
system.cpu_cluster.cpus.statFuBusy::FloatCmp            0      0.00%      1.14% # attempts to use FU when none available (Count)
system.cpu_cluster.cpus.statFuBusy::FloatCvt            0      0.00%      1.14% # attempts to use FU when none available (Count)
system.cpu_cluster.cpus.statFuBusy::FloatMult            0      0.00%      1.14% # attempts to use FU when none available (Count)
system.cpu_cluster.cpus.statFuBusy::FloatMultAcc            0      0.00%      1.14% # attempts to use FU when none available (Count)
system.cpu_cluster.cpus.statFuBusy::FloatDiv            0      0.00%      1.14% # attempts to use FU when none available (Count)
system.cpu_cluster.cpus.statFuBusy::FloatMisc            0      0.00%      1.14% # attempts to use FU when none available (Count)
system.cpu_cluster.cpus.statFuBusy::FloatSqrt            0      0.00%      1.14% # attempts to use FU when none available (Count)
system.cpu_cluster.cpus.statFuBusy::SimdAdd            0      0.00%      1.14% # attempts to use FU when none available (Count)
system.cpu_cluster.cpus.statFuBusy::SimdAddAcc            0      0.00%      1.14% # attempts to use FU when none available (Count)
system.cpu_cluster.cpus.statFuBusy::SimdAlu            0      0.00%      1.14% # attempts to use FU when none available (Count)
system.cpu_cluster.cpus.statFuBusy::SimdCmp            0      0.00%      1.14% # attempts to use FU when none available (Count)
system.cpu_cluster.cpus.statFuBusy::SimdCvt            0      0.00%      1.14% # attempts to use FU when none available (Count)
system.cpu_cluster.cpus.statFuBusy::SimdMisc            0      0.00%      1.14% # attempts to use FU when none available (Count)
system.cpu_cluster.cpus.statFuBusy::SimdMult            0      0.00%      1.14% # attempts to use FU when none available (Count)
system.cpu_cluster.cpus.statFuBusy::SimdMultAcc            0      0.00%      1.14% # attempts to use FU when none available (Count)
system.cpu_cluster.cpus.statFuBusy::SimdShift            0      0.00%      1.14% # attempts to use FU when none available (Count)
system.cpu_cluster.cpus.statFuBusy::SimdShiftAcc            0      0.00%      1.14% # attempts to use FU when none available (Count)
system.cpu_cluster.cpus.statFuBusy::SimdDiv            0      0.00%      1.14% # attempts to use FU when none available (Count)
system.cpu_cluster.cpus.statFuBusy::SimdSqrt            0      0.00%      1.14% # attempts to use FU when none available (Count)
system.cpu_cluster.cpus.statFuBusy::SimdFloatAdd            0      0.00%      1.14% # attempts to use FU when none available (Count)
system.cpu_cluster.cpus.statFuBusy::SimdFloatAlu            0      0.00%      1.14% # attempts to use FU when none available (Count)
system.cpu_cluster.cpus.statFuBusy::SimdFloatCmp            0      0.00%      1.14% # attempts to use FU when none available (Count)
system.cpu_cluster.cpus.statFuBusy::SimdFloatCvt            0      0.00%      1.14% # attempts to use FU when none available (Count)
system.cpu_cluster.cpus.statFuBusy::SimdFloatDiv            0      0.00%      1.14% # attempts to use FU when none available (Count)
system.cpu_cluster.cpus.statFuBusy::SimdFloatMisc            0      0.00%      1.14% # attempts to use FU when none available (Count)
system.cpu_cluster.cpus.statFuBusy::SimdFloatMult            0      0.00%      1.14% # attempts to use FU when none available (Count)
system.cpu_cluster.cpus.statFuBusy::SimdFloatMultAcc            0      0.00%      1.14% # attempts to use FU when none available (Count)
system.cpu_cluster.cpus.statFuBusy::SimdFloatSqrt            0      0.00%      1.14% # attempts to use FU when none available (Count)
system.cpu_cluster.cpus.statFuBusy::SimdReduceAdd            0      0.00%      1.14% # attempts to use FU when none available (Count)
system.cpu_cluster.cpus.statFuBusy::SimdReduceAlu            0      0.00%      1.14% # attempts to use FU when none available (Count)
system.cpu_cluster.cpus.statFuBusy::SimdReduceCmp            0      0.00%      1.14% # attempts to use FU when none available (Count)
system.cpu_cluster.cpus.statFuBusy::SimdFloatReduceAdd            0      0.00%      1.14% # attempts to use FU when none available (Count)
system.cpu_cluster.cpus.statFuBusy::SimdFloatReduceCmp            0      0.00%      1.14% # attempts to use FU when none available (Count)
system.cpu_cluster.cpus.statFuBusy::SimdAes            0      0.00%      1.14% # attempts to use FU when none available (Count)
system.cpu_cluster.cpus.statFuBusy::SimdAesMix            0      0.00%      1.14% # attempts to use FU when none available (Count)
system.cpu_cluster.cpus.statFuBusy::SimdSha1Hash            0      0.00%      1.14% # attempts to use FU when none available (Count)
system.cpu_cluster.cpus.statFuBusy::SimdSha1Hash2            0      0.00%      1.14% # attempts to use FU when none available (Count)
system.cpu_cluster.cpus.statFuBusy::SimdSha256Hash            0      0.00%      1.14% # attempts to use FU when none available (Count)
system.cpu_cluster.cpus.statFuBusy::SimdSha256Hash2            0      0.00%      1.14% # attempts to use FU when none available (Count)
system.cpu_cluster.cpus.statFuBusy::SimdShaSigma2            0      0.00%      1.14% # attempts to use FU when none available (Count)
system.cpu_cluster.cpus.statFuBusy::SimdShaSigma3            0      0.00%      1.14% # attempts to use FU when none available (Count)
system.cpu_cluster.cpus.statFuBusy::SimdPredAlu            0      0.00%      1.14% # attempts to use FU when none available (Count)
system.cpu_cluster.cpus.statFuBusy::MemRead         1038     98.86%    100.00% # attempts to use FU when none available (Count)
system.cpu_cluster.cpus.statFuBusy::MemWrite            0      0.00%    100.00% # attempts to use FU when none available (Count)
system.cpu_cluster.cpus.statFuBusy::FloatMemRead            0      0.00%    100.00% # attempts to use FU when none available (Count)
system.cpu_cluster.cpus.statFuBusy::FloatMemWrite            0      0.00%    100.00% # attempts to use FU when none available (Count)
system.cpu_cluster.cpus.statFuBusy::IprAccess            0      0.00%    100.00% # attempts to use FU when none available (Count)
system.cpu_cluster.cpus.statFuBusy::InstPrefetch            0      0.00%    100.00% # attempts to use FU when none available (Count)
system.cpu_cluster.cpus.statFuNoFree::No_OpClass            0      0.00%      0.00% # attempts to use FU when none available (Count)
system.cpu_cluster.cpus.statFuNoFree::IntAlu            0      0.00%      0.00% # attempts to use FU when none available (Count)
system.cpu_cluster.cpus.statFuNoFree::IntMult            0      0.00%      0.00% # attempts to use FU when none available (Count)
system.cpu_cluster.cpus.statFuNoFree::IntDiv           12      0.45%      0.45% # attempts to use FU when none available (Count)
system.cpu_cluster.cpus.statFuNoFree::FloatAdd            0      0.00%      0.45% # attempts to use FU when none available (Count)
system.cpu_cluster.cpus.statFuNoFree::FloatCmp            0      0.00%      0.45% # attempts to use FU when none available (Count)
system.cpu_cluster.cpus.statFuNoFree::FloatCvt            0      0.00%      0.45% # attempts to use FU when none available (Count)
system.cpu_cluster.cpus.statFuNoFree::FloatMult            0      0.00%      0.45% # attempts to use FU when none available (Count)
system.cpu_cluster.cpus.statFuNoFree::FloatMultAcc            0      0.00%      0.45% # attempts to use FU when none available (Count)
system.cpu_cluster.cpus.statFuNoFree::FloatDiv            0      0.00%      0.45% # attempts to use FU when none available (Count)
system.cpu_cluster.cpus.statFuNoFree::FloatMisc            0      0.00%      0.45% # attempts to use FU when none available (Count)
system.cpu_cluster.cpus.statFuNoFree::FloatSqrt            0      0.00%      0.45% # attempts to use FU when none available (Count)
system.cpu_cluster.cpus.statFuNoFree::SimdAdd            0      0.00%      0.45% # attempts to use FU when none available (Count)
system.cpu_cluster.cpus.statFuNoFree::SimdAddAcc            0      0.00%      0.45% # attempts to use FU when none available (Count)
system.cpu_cluster.cpus.statFuNoFree::SimdAlu            1      0.04%      0.49% # attempts to use FU when none available (Count)
system.cpu_cluster.cpus.statFuNoFree::SimdCmp            0      0.00%      0.49% # attempts to use FU when none available (Count)
system.cpu_cluster.cpus.statFuNoFree::SimdCvt            0      0.00%      0.49% # attempts to use FU when none available (Count)
system.cpu_cluster.cpus.statFuNoFree::SimdMisc            0      0.00%      0.49% # attempts to use FU when none available (Count)
system.cpu_cluster.cpus.statFuNoFree::SimdMult            0      0.00%      0.49% # attempts to use FU when none available (Count)
system.cpu_cluster.cpus.statFuNoFree::SimdMultAcc            0      0.00%      0.49% # attempts to use FU when none available (Count)
system.cpu_cluster.cpus.statFuNoFree::SimdShift            0      0.00%      0.49% # attempts to use FU when none available (Count)
system.cpu_cluster.cpus.statFuNoFree::SimdShiftAcc            0      0.00%      0.49% # attempts to use FU when none available (Count)
system.cpu_cluster.cpus.statFuNoFree::SimdDiv            0      0.00%      0.49% # attempts to use FU when none available (Count)
system.cpu_cluster.cpus.statFuNoFree::SimdSqrt            0      0.00%      0.49% # attempts to use FU when none available (Count)
system.cpu_cluster.cpus.statFuNoFree::SimdFloatAdd            0      0.00%      0.49% # attempts to use FU when none available (Count)
system.cpu_cluster.cpus.statFuNoFree::SimdFloatAlu            0      0.00%      0.49% # attempts to use FU when none available (Count)
system.cpu_cluster.cpus.statFuNoFree::SimdFloatCmp            0      0.00%      0.49% # attempts to use FU when none available (Count)
system.cpu_cluster.cpus.statFuNoFree::SimdFloatCvt            0      0.00%      0.49% # attempts to use FU when none available (Count)
system.cpu_cluster.cpus.statFuNoFree::SimdFloatDiv            0      0.00%      0.49% # attempts to use FU when none available (Count)
system.cpu_cluster.cpus.statFuNoFree::SimdFloatMisc            0      0.00%      0.49% # attempts to use FU when none available (Count)
system.cpu_cluster.cpus.statFuNoFree::SimdFloatMult            0      0.00%      0.49% # attempts to use FU when none available (Count)
system.cpu_cluster.cpus.statFuNoFree::SimdFloatMultAcc            0      0.00%      0.49% # attempts to use FU when none available (Count)
system.cpu_cluster.cpus.statFuNoFree::SimdFloatSqrt            0      0.00%      0.49% # attempts to use FU when none available (Count)
system.cpu_cluster.cpus.statFuNoFree::SimdReduceAdd            0      0.00%      0.49% # attempts to use FU when none available (Count)
system.cpu_cluster.cpus.statFuNoFree::SimdReduceAlu            0      0.00%      0.49% # attempts to use FU when none available (Count)
system.cpu_cluster.cpus.statFuNoFree::SimdReduceCmp            0      0.00%      0.49% # attempts to use FU when none available (Count)
system.cpu_cluster.cpus.statFuNoFree::SimdFloatReduceAdd            0      0.00%      0.49% # attempts to use FU when none available (Count)
system.cpu_cluster.cpus.statFuNoFree::SimdFloatReduceCmp            0      0.00%      0.49% # attempts to use FU when none available (Count)
system.cpu_cluster.cpus.statFuNoFree::SimdAes            0      0.00%      0.49% # attempts to use FU when none available (Count)
system.cpu_cluster.cpus.statFuNoFree::SimdAesMix            0      0.00%      0.49% # attempts to use FU when none available (Count)
system.cpu_cluster.cpus.statFuNoFree::SimdSha1Hash            0      0.00%      0.49% # attempts to use FU when none available (Count)
system.cpu_cluster.cpus.statFuNoFree::SimdSha1Hash2            0      0.00%      0.49% # attempts to use FU when none available (Count)
system.cpu_cluster.cpus.statFuNoFree::SimdSha256Hash            0      0.00%      0.49% # attempts to use FU when none available (Count)
system.cpu_cluster.cpus.statFuNoFree::SimdSha256Hash2            0      0.00%      0.49% # attempts to use FU when none available (Count)
system.cpu_cluster.cpus.statFuNoFree::SimdShaSigma2            0      0.00%      0.49% # attempts to use FU when none available (Count)
system.cpu_cluster.cpus.statFuNoFree::SimdShaSigma3            0      0.00%      0.49% # attempts to use FU when none available (Count)
system.cpu_cluster.cpus.statFuNoFree::SimdPredAlu            0      0.00%      0.49% # attempts to use FU when none available (Count)
system.cpu_cluster.cpus.statFuNoFree::MemRead         2601     98.04%     98.53% # attempts to use FU when none available (Count)
system.cpu_cluster.cpus.statFuNoFree::MemWrite           39      1.47%    100.00% # attempts to use FU when none available (Count)
system.cpu_cluster.cpus.statFuNoFree::FloatMemRead            0      0.00%    100.00% # attempts to use FU when none available (Count)
system.cpu_cluster.cpus.statFuNoFree::FloatMemWrite            0      0.00%    100.00% # attempts to use FU when none available (Count)
system.cpu_cluster.cpus.statFuNoFree::IprAccess            0      0.00%    100.00% # attempts to use FU when none available (Count)
system.cpu_cluster.cpus.statFuNoFree::InstPrefetch            0      0.00%    100.00% # attempts to use FU when none available (Count)
system.cpu_cluster.cpus.statAvgFUUtilization::No_OpClass            0      0.00%      0.00% # Avg utilization of FU (Count)
system.cpu_cluster.cpus.statAvgFUUtilization::IntAlu     1.004684     21.23%     21.23% # Avg utilization of FU (Count)
system.cpu_cluster.cpus.statAvgFUUtilization::IntMult     0.253528      5.36%     26.58% # Avg utilization of FU (Count)
system.cpu_cluster.cpus.statAvgFUUtilization::IntDiv     0.253528      5.36%     31.94% # Avg utilization of FU (Count)
system.cpu_cluster.cpus.statAvgFUUtilization::FloatAdd     0.043711      0.92%     32.86% # Avg utilization of FU (Count)
system.cpu_cluster.cpus.statAvgFUUtilization::FloatCmp     0.043711      0.92%     33.79% # Avg utilization of FU (Count)
system.cpu_cluster.cpus.statAvgFUUtilization::FloatCvt     0.043711      0.92%     34.71% # Avg utilization of FU (Count)
system.cpu_cluster.cpus.statAvgFUUtilization::FloatMult     0.043711      0.92%     35.63% # Avg utilization of FU (Count)
system.cpu_cluster.cpus.statAvgFUUtilization::FloatMultAcc     0.043711      0.92%     36.56% # Avg utilization of FU (Count)
system.cpu_cluster.cpus.statAvgFUUtilization::FloatDiv     0.009217      0.19%     36.75% # Avg utilization of FU (Count)
system.cpu_cluster.cpus.statAvgFUUtilization::FloatMisc     0.043711      0.92%     37.67% # Avg utilization of FU (Count)
system.cpu_cluster.cpus.statAvgFUUtilization::FloatSqrt     0.009217      0.19%     37.87% # Avg utilization of FU (Count)
system.cpu_cluster.cpus.statAvgFUUtilization::SimdAdd     0.043711      0.92%     38.79% # Avg utilization of FU (Count)
system.cpu_cluster.cpus.statAvgFUUtilization::SimdAddAcc     0.034496      0.73%     39.52% # Avg utilization of FU (Count)
system.cpu_cluster.cpus.statAvgFUUtilization::SimdAlu     0.043711      0.92%     40.44% # Avg utilization of FU (Count)
system.cpu_cluster.cpus.statAvgFUUtilization::SimdCmp     0.043711      0.92%     41.37% # Avg utilization of FU (Count)
system.cpu_cluster.cpus.statAvgFUUtilization::SimdCvt     0.026486      0.56%     41.93% # Avg utilization of FU (Count)
system.cpu_cluster.cpus.statAvgFUUtilization::SimdMisc     0.043711      0.92%     42.85% # Avg utilization of FU (Count)
system.cpu_cluster.cpus.statAvgFUUtilization::SimdMult     0.043711      0.92%     43.77% # Avg utilization of FU (Count)
system.cpu_cluster.cpus.statAvgFUUtilization::SimdMultAcc     0.009217      0.19%     43.97% # Avg utilization of FU (Count)
system.cpu_cluster.cpus.statAvgFUUtilization::SimdShift     0.034496      0.73%     44.70% # Avg utilization of FU (Count)
system.cpu_cluster.cpus.statAvgFUUtilization::SimdShiftAcc     0.034496      0.73%     45.43% # Avg utilization of FU (Count)
system.cpu_cluster.cpus.statAvgFUUtilization::SimdDiv            0      0.00%     45.43% # Avg utilization of FU (Count)
system.cpu_cluster.cpus.statAvgFUUtilization::SimdSqrt     0.009217      0.19%     45.62% # Avg utilization of FU (Count)
system.cpu_cluster.cpus.statAvgFUUtilization::SimdFloatAdd     0.043711      0.92%     46.55% # Avg utilization of FU (Count)
system.cpu_cluster.cpus.statAvgFUUtilization::SimdFloatAlu            0      0.00%     46.55% # Avg utilization of FU (Count)
system.cpu_cluster.cpus.statAvgFUUtilization::SimdFloatCmp     0.043711      0.92%     47.47% # Avg utilization of FU (Count)
system.cpu_cluster.cpus.statAvgFUUtilization::SimdFloatCvt            0      0.00%     47.47% # Avg utilization of FU (Count)
system.cpu_cluster.cpus.statAvgFUUtilization::SimdFloatDiv     0.009217      0.19%     47.66% # Avg utilization of FU (Count)
system.cpu_cluster.cpus.statAvgFUUtilization::SimdFloatMisc     0.043711      0.92%     48.59% # Avg utilization of FU (Count)
system.cpu_cluster.cpus.statAvgFUUtilization::SimdFloatMult            0      0.00%     48.59% # Avg utilization of FU (Count)
system.cpu_cluster.cpus.statAvgFUUtilization::SimdFloatMultAcc     0.043711      0.92%     49.51% # Avg utilization of FU (Count)
system.cpu_cluster.cpus.statAvgFUUtilization::SimdFloatSqrt     0.009217      0.19%     49.71% # Avg utilization of FU (Count)
system.cpu_cluster.cpus.statAvgFUUtilization::SimdReduceAdd     0.043711      0.92%     50.63% # Avg utilization of FU (Count)
system.cpu_cluster.cpus.statAvgFUUtilization::SimdReduceAlu     0.043711      0.92%     51.55% # Avg utilization of FU (Count)
system.cpu_cluster.cpus.statAvgFUUtilization::SimdReduceCmp     0.034496      0.73%     52.28% # Avg utilization of FU (Count)
system.cpu_cluster.cpus.statAvgFUUtilization::SimdFloatReduceAdd     0.043711      0.92%     53.20% # Avg utilization of FU (Count)
system.cpu_cluster.cpus.statAvgFUUtilization::SimdFloatReduceCmp     0.043711      0.92%     54.13% # Avg utilization of FU (Count)
system.cpu_cluster.cpus.statAvgFUUtilization::SimdAes     0.043711      0.92%     55.05% # Avg utilization of FU (Count)
system.cpu_cluster.cpus.statAvgFUUtilization::SimdAesMix     0.043711      0.92%     55.98% # Avg utilization of FU (Count)
system.cpu_cluster.cpus.statAvgFUUtilization::SimdSha1Hash     0.004596      0.10%     56.07% # Avg utilization of FU (Count)
system.cpu_cluster.cpus.statAvgFUUtilization::SimdSha1Hash2     0.004596      0.10%     56.17% # Avg utilization of FU (Count)
system.cpu_cluster.cpus.statAvgFUUtilization::SimdSha256Hash     0.004596      0.10%     56.27% # Avg utilization of FU (Count)
system.cpu_cluster.cpus.statAvgFUUtilization::SimdSha256Hash2     0.004596      0.10%     56.36% # Avg utilization of FU (Count)
system.cpu_cluster.cpus.statAvgFUUtilization::SimdShaSigma2     0.004596      0.10%     56.46% # Avg utilization of FU (Count)
system.cpu_cluster.cpus.statAvgFUUtilization::SimdShaSigma3     0.004596      0.10%     56.56% # Avg utilization of FU (Count)
system.cpu_cluster.cpus.statAvgFUUtilization::SimdPredAlu     0.269011      5.68%     62.24% # Avg utilization of FU (Count)
system.cpu_cluster.cpus.statAvgFUUtilization::MemRead     0.385520      8.14%     70.39% # Avg utilization of FU (Count)
system.cpu_cluster.cpus.statAvgFUUtilization::MemWrite     0.381331      8.06%     78.44% # Avg utilization of FU (Count)
system.cpu_cluster.cpus.statAvgFUUtilization::FloatMemRead     0.385520      8.14%     86.59% # Avg utilization of FU (Count)
system.cpu_cluster.cpus.statAvgFUUtilization::FloatMemWrite     0.381331      8.06%     94.64% # Avg utilization of FU (Count)
system.cpu_cluster.cpus.statAvgFUUtilization::IprAccess     0.253528      5.36%    100.00% # Avg utilization of FU (Count)
system.cpu_cluster.cpus.statAvgFUUtilization::InstPrefetch            0      0.00%    100.00% # Avg utilization of FU (Count)
system.cpu_cluster.cpus.statFuBusyPerThreadCollective::0         1050                       # Number of times instruction not issued because FU not available, per thread (Count)
system.cpu_cluster.cpus.statFuBusyPerThreadCollective::1            0                       # Number of times instruction not issued because FU not available, per thread (Count)
system.cpu_cluster.cpus.statFuBusyPerThreadCollective::total         1050                       # Number of times instruction not issued because FU not available, per thread (Count)
system.cpu_cluster.cpus.statIssuedInstType_0::No_OpClass           12      0.00%      0.00% # Number of instructions issued per FU type, per thread (Count)
system.cpu_cluster.cpus.statIssuedInstType_0::IntAlu       229908     64.52%     64.52% # Number of instructions issued per FU type, per thread (Count)
system.cpu_cluster.cpus.statIssuedInstType_0::IntMult         2591      0.73%     65.25% # Number of instructions issued per FU type, per thread (Count)
system.cpu_cluster.cpus.statIssuedInstType_0::IntDiv          548      0.15%     65.41% # Number of instructions issued per FU type, per thread (Count)
system.cpu_cluster.cpus.statIssuedInstType_0::FloatAdd         2048      0.57%     65.98% # Number of instructions issued per FU type, per thread (Count)
system.cpu_cluster.cpus.statIssuedInstType_0::FloatCmp            0      0.00%     65.98% # Number of instructions issued per FU type, per thread (Count)
system.cpu_cluster.cpus.statIssuedInstType_0::FloatCvt         1906      0.53%     66.51% # Number of instructions issued per FU type, per thread (Count)
system.cpu_cluster.cpus.statIssuedInstType_0::FloatMult         1908      0.54%     67.05% # Number of instructions issued per FU type, per thread (Count)
system.cpu_cluster.cpus.statIssuedInstType_0::FloatMultAcc            0      0.00%     67.05% # Number of instructions issued per FU type, per thread (Count)
system.cpu_cluster.cpus.statIssuedInstType_0::FloatDiv            0      0.00%     67.05% # Number of instructions issued per FU type, per thread (Count)
system.cpu_cluster.cpus.statIssuedInstType_0::FloatMisc         4106      1.15%     68.20% # Number of instructions issued per FU type, per thread (Count)
system.cpu_cluster.cpus.statIssuedInstType_0::FloatSqrt            0      0.00%     68.20% # Number of instructions issued per FU type, per thread (Count)
system.cpu_cluster.cpus.statIssuedInstType_0::SimdAdd           11      0.00%     68.21% # Number of instructions issued per FU type, per thread (Count)
system.cpu_cluster.cpus.statIssuedInstType_0::SimdAddAcc            0      0.00%     68.21% # Number of instructions issued per FU type, per thread (Count)
system.cpu_cluster.cpus.statIssuedInstType_0::SimdAlu            8      0.00%     68.21% # Number of instructions issued per FU type, per thread (Count)
system.cpu_cluster.cpus.statIssuedInstType_0::SimdCmp            8      0.00%     68.21% # Number of instructions issued per FU type, per thread (Count)
system.cpu_cluster.cpus.statIssuedInstType_0::SimdCvt            0      0.00%     68.21% # Number of instructions issued per FU type, per thread (Count)
system.cpu_cluster.cpus.statIssuedInstType_0::SimdMisc          145      0.04%     68.25% # Number of instructions issued per FU type, per thread (Count)
system.cpu_cluster.cpus.statIssuedInstType_0::SimdMult            0      0.00%     68.25% # Number of instructions issued per FU type, per thread (Count)
system.cpu_cluster.cpus.statIssuedInstType_0::SimdMultAcc            0      0.00%     68.25% # Number of instructions issued per FU type, per thread (Count)
system.cpu_cluster.cpus.statIssuedInstType_0::SimdShift            0      0.00%     68.25% # Number of instructions issued per FU type, per thread (Count)
system.cpu_cluster.cpus.statIssuedInstType_0::SimdShiftAcc            0      0.00%     68.25% # Number of instructions issued per FU type, per thread (Count)
system.cpu_cluster.cpus.statIssuedInstType_0::SimdDiv            0      0.00%     68.25% # Number of instructions issued per FU type, per thread (Count)
system.cpu_cluster.cpus.statIssuedInstType_0::SimdSqrt            0      0.00%     68.25% # Number of instructions issued per FU type, per thread (Count)
system.cpu_cluster.cpus.statIssuedInstType_0::SimdFloatAdd            0      0.00%     68.25% # Number of instructions issued per FU type, per thread (Count)
system.cpu_cluster.cpus.statIssuedInstType_0::SimdFloatAlu            0      0.00%     68.25% # Number of instructions issued per FU type, per thread (Count)
system.cpu_cluster.cpus.statIssuedInstType_0::SimdFloatCmp            0      0.00%     68.25% # Number of instructions issued per FU type, per thread (Count)
system.cpu_cluster.cpus.statIssuedInstType_0::SimdFloatCvt            0      0.00%     68.25% # Number of instructions issued per FU type, per thread (Count)
system.cpu_cluster.cpus.statIssuedInstType_0::SimdFloatDiv            0      0.00%     68.25% # Number of instructions issued per FU type, per thread (Count)
system.cpu_cluster.cpus.statIssuedInstType_0::SimdFloatMisc            0      0.00%     68.25% # Number of instructions issued per FU type, per thread (Count)
system.cpu_cluster.cpus.statIssuedInstType_0::SimdFloatMult            0      0.00%     68.25% # Number of instructions issued per FU type, per thread (Count)
system.cpu_cluster.cpus.statIssuedInstType_0::SimdFloatMultAcc            0      0.00%     68.25% # Number of instructions issued per FU type, per thread (Count)
system.cpu_cluster.cpus.statIssuedInstType_0::SimdFloatSqrt            0      0.00%     68.25% # Number of instructions issued per FU type, per thread (Count)
system.cpu_cluster.cpus.statIssuedInstType_0::SimdReduceAdd            0      0.00%     68.25% # Number of instructions issued per FU type, per thread (Count)
system.cpu_cluster.cpus.statIssuedInstType_0::SimdReduceAlu            0      0.00%     68.25% # Number of instructions issued per FU type, per thread (Count)
system.cpu_cluster.cpus.statIssuedInstType_0::SimdReduceCmp            0      0.00%     68.25% # Number of instructions issued per FU type, per thread (Count)
system.cpu_cluster.cpus.statIssuedInstType_0::SimdFloatReduceAdd            0      0.00%     68.25% # Number of instructions issued per FU type, per thread (Count)
system.cpu_cluster.cpus.statIssuedInstType_0::SimdFloatReduceCmp            0      0.00%     68.25% # Number of instructions issued per FU type, per thread (Count)
system.cpu_cluster.cpus.statIssuedInstType_0::SimdAes            0      0.00%     68.25% # Number of instructions issued per FU type, per thread (Count)
system.cpu_cluster.cpus.statIssuedInstType_0::SimdAesMix            0      0.00%     68.25% # Number of instructions issued per FU type, per thread (Count)
system.cpu_cluster.cpus.statIssuedInstType_0::SimdSha1Hash            0      0.00%     68.25% # Number of instructions issued per FU type, per thread (Count)
system.cpu_cluster.cpus.statIssuedInstType_0::SimdSha1Hash2            0      0.00%     68.25% # Number of instructions issued per FU type, per thread (Count)
system.cpu_cluster.cpus.statIssuedInstType_0::SimdSha256Hash            0      0.00%     68.25% # Number of instructions issued per FU type, per thread (Count)
system.cpu_cluster.cpus.statIssuedInstType_0::SimdSha256Hash2            0      0.00%     68.25% # Number of instructions issued per FU type, per thread (Count)
system.cpu_cluster.cpus.statIssuedInstType_0::SimdShaSigma2            0      0.00%     68.25% # Number of instructions issued per FU type, per thread (Count)
system.cpu_cluster.cpus.statIssuedInstType_0::SimdShaSigma3            0      0.00%     68.25% # Number of instructions issued per FU type, per thread (Count)
system.cpu_cluster.cpus.statIssuedInstType_0::SimdPredAlu            0      0.00%     68.25% # Number of instructions issued per FU type, per thread (Count)
system.cpu_cluster.cpus.statIssuedInstType_0::MemRead        66147     18.56%     86.81% # Number of instructions issued per FU type, per thread (Count)
system.cpu_cluster.cpus.statIssuedInstType_0::MemWrite        46986     13.19%    100.00% # Number of instructions issued per FU type, per thread (Count)
system.cpu_cluster.cpus.statIssuedInstType_0::FloatMemRead            0      0.00%    100.00% # Number of instructions issued per FU type, per thread (Count)
system.cpu_cluster.cpus.statIssuedInstType_0::FloatMemWrite            0      0.00%    100.00% # Number of instructions issued per FU type, per thread (Count)
system.cpu_cluster.cpus.statIssuedInstType_0::IprAccess            0      0.00%    100.00% # Number of instructions issued per FU type, per thread (Count)
system.cpu_cluster.cpus.statIssuedInstType_0::InstPrefetch            0      0.00%    100.00% # Number of instructions issued per FU type, per thread (Count)
system.cpu_cluster.cpus.statIssuedInstType_0::total       356332                       # Number of instructions issued per FU type, per thread (Count)
system.cpu_cluster.cpus.statIssuedInstType_1::No_OpClass            0                       # Number of instructions issued per FU type, per thread (Count)
system.cpu_cluster.cpus.statIssuedInstType_1::IntAlu            0                       # Number of instructions issued per FU type, per thread (Count)
system.cpu_cluster.cpus.statIssuedInstType_1::IntMult            0                       # Number of instructions issued per FU type, per thread (Count)
system.cpu_cluster.cpus.statIssuedInstType_1::IntDiv            0                       # Number of instructions issued per FU type, per thread (Count)
system.cpu_cluster.cpus.statIssuedInstType_1::FloatAdd            0                       # Number of instructions issued per FU type, per thread (Count)
system.cpu_cluster.cpus.statIssuedInstType_1::FloatCmp            0                       # Number of instructions issued per FU type, per thread (Count)
system.cpu_cluster.cpus.statIssuedInstType_1::FloatCvt            0                       # Number of instructions issued per FU type, per thread (Count)
system.cpu_cluster.cpus.statIssuedInstType_1::FloatMult            0                       # Number of instructions issued per FU type, per thread (Count)
system.cpu_cluster.cpus.statIssuedInstType_1::FloatMultAcc            0                       # Number of instructions issued per FU type, per thread (Count)
system.cpu_cluster.cpus.statIssuedInstType_1::FloatDiv            0                       # Number of instructions issued per FU type, per thread (Count)
system.cpu_cluster.cpus.statIssuedInstType_1::FloatMisc            0                       # Number of instructions issued per FU type, per thread (Count)
system.cpu_cluster.cpus.statIssuedInstType_1::FloatSqrt            0                       # Number of instructions issued per FU type, per thread (Count)
system.cpu_cluster.cpus.statIssuedInstType_1::SimdAdd            0                       # Number of instructions issued per FU type, per thread (Count)
system.cpu_cluster.cpus.statIssuedInstType_1::SimdAddAcc            0                       # Number of instructions issued per FU type, per thread (Count)
system.cpu_cluster.cpus.statIssuedInstType_1::SimdAlu            0                       # Number of instructions issued per FU type, per thread (Count)
system.cpu_cluster.cpus.statIssuedInstType_1::SimdCmp            0                       # Number of instructions issued per FU type, per thread (Count)
system.cpu_cluster.cpus.statIssuedInstType_1::SimdCvt            0                       # Number of instructions issued per FU type, per thread (Count)
system.cpu_cluster.cpus.statIssuedInstType_1::SimdMisc            0                       # Number of instructions issued per FU type, per thread (Count)
system.cpu_cluster.cpus.statIssuedInstType_1::SimdMult            0                       # Number of instructions issued per FU type, per thread (Count)
system.cpu_cluster.cpus.statIssuedInstType_1::SimdMultAcc            0                       # Number of instructions issued per FU type, per thread (Count)
system.cpu_cluster.cpus.statIssuedInstType_1::SimdShift            0                       # Number of instructions issued per FU type, per thread (Count)
system.cpu_cluster.cpus.statIssuedInstType_1::SimdShiftAcc            0                       # Number of instructions issued per FU type, per thread (Count)
system.cpu_cluster.cpus.statIssuedInstType_1::SimdDiv            0                       # Number of instructions issued per FU type, per thread (Count)
system.cpu_cluster.cpus.statIssuedInstType_1::SimdSqrt            0                       # Number of instructions issued per FU type, per thread (Count)
system.cpu_cluster.cpus.statIssuedInstType_1::SimdFloatAdd            0                       # Number of instructions issued per FU type, per thread (Count)
system.cpu_cluster.cpus.statIssuedInstType_1::SimdFloatAlu            0                       # Number of instructions issued per FU type, per thread (Count)
system.cpu_cluster.cpus.statIssuedInstType_1::SimdFloatCmp            0                       # Number of instructions issued per FU type, per thread (Count)
system.cpu_cluster.cpus.statIssuedInstType_1::SimdFloatCvt            0                       # Number of instructions issued per FU type, per thread (Count)
system.cpu_cluster.cpus.statIssuedInstType_1::SimdFloatDiv            0                       # Number of instructions issued per FU type, per thread (Count)
system.cpu_cluster.cpus.statIssuedInstType_1::SimdFloatMisc            0                       # Number of instructions issued per FU type, per thread (Count)
system.cpu_cluster.cpus.statIssuedInstType_1::SimdFloatMult            0                       # Number of instructions issued per FU type, per thread (Count)
system.cpu_cluster.cpus.statIssuedInstType_1::SimdFloatMultAcc            0                       # Number of instructions issued per FU type, per thread (Count)
system.cpu_cluster.cpus.statIssuedInstType_1::SimdFloatSqrt            0                       # Number of instructions issued per FU type, per thread (Count)
system.cpu_cluster.cpus.statIssuedInstType_1::SimdReduceAdd            0                       # Number of instructions issued per FU type, per thread (Count)
system.cpu_cluster.cpus.statIssuedInstType_1::SimdReduceAlu            0                       # Number of instructions issued per FU type, per thread (Count)
system.cpu_cluster.cpus.statIssuedInstType_1::SimdReduceCmp            0                       # Number of instructions issued per FU type, per thread (Count)
system.cpu_cluster.cpus.statIssuedInstType_1::SimdFloatReduceAdd            0                       # Number of instructions issued per FU type, per thread (Count)
system.cpu_cluster.cpus.statIssuedInstType_1::SimdFloatReduceCmp            0                       # Number of instructions issued per FU type, per thread (Count)
system.cpu_cluster.cpus.statIssuedInstType_1::SimdAes            0                       # Number of instructions issued per FU type, per thread (Count)
system.cpu_cluster.cpus.statIssuedInstType_1::SimdAesMix            0                       # Number of instructions issued per FU type, per thread (Count)
system.cpu_cluster.cpus.statIssuedInstType_1::SimdSha1Hash            0                       # Number of instructions issued per FU type, per thread (Count)
system.cpu_cluster.cpus.statIssuedInstType_1::SimdSha1Hash2            0                       # Number of instructions issued per FU type, per thread (Count)
system.cpu_cluster.cpus.statIssuedInstType_1::SimdSha256Hash            0                       # Number of instructions issued per FU type, per thread (Count)
system.cpu_cluster.cpus.statIssuedInstType_1::SimdSha256Hash2            0                       # Number of instructions issued per FU type, per thread (Count)
system.cpu_cluster.cpus.statIssuedInstType_1::SimdShaSigma2            0                       # Number of instructions issued per FU type, per thread (Count)
system.cpu_cluster.cpus.statIssuedInstType_1::SimdShaSigma3            0                       # Number of instructions issued per FU type, per thread (Count)
system.cpu_cluster.cpus.statIssuedInstType_1::SimdPredAlu            0                       # Number of instructions issued per FU type, per thread (Count)
system.cpu_cluster.cpus.statIssuedInstType_1::MemRead            0                       # Number of instructions issued per FU type, per thread (Count)
system.cpu_cluster.cpus.statIssuedInstType_1::MemWrite            0                       # Number of instructions issued per FU type, per thread (Count)
system.cpu_cluster.cpus.statIssuedInstType_1::FloatMemRead            0                       # Number of instructions issued per FU type, per thread (Count)
system.cpu_cluster.cpus.statIssuedInstType_1::FloatMemWrite            0                       # Number of instructions issued per FU type, per thread (Count)
system.cpu_cluster.cpus.statIssuedInstType_1::IprAccess            0                       # Number of instructions issued per FU type, per thread (Count)
system.cpu_cluster.cpus.statIssuedInstType_1::InstPrefetch            0                       # Number of instructions issued per FU type, per thread (Count)
system.cpu_cluster.cpus.statIssuedInstType_1::total            0                       # Number of instructions issued per FU type, per thread (Count)
system.cpu_cluster.cpus.statIssuedInstType::total       356332      0.00%      0.00% # Number of instructions issued per FU type, per thread (Count)
system.cpu_cluster.cpus.statFuBusyPerThread_0::No_OpClass            0      0.00%      0.00% # Number of instructions structural stalls per FU type, per thread (Count)
system.cpu_cluster.cpus.statFuBusyPerThread_0::IntAlu            0      0.00%      0.00% # Number of instructions structural stalls per FU type, per thread (Count)
system.cpu_cluster.cpus.statFuBusyPerThread_0::IntMult            0      0.00%      0.00% # Number of instructions structural stalls per FU type, per thread (Count)
system.cpu_cluster.cpus.statFuBusyPerThread_0::IntDiv           12      1.14%      1.14% # Number of instructions structural stalls per FU type, per thread (Count)
system.cpu_cluster.cpus.statFuBusyPerThread_0::FloatAdd            0      0.00%      1.14% # Number of instructions structural stalls per FU type, per thread (Count)
system.cpu_cluster.cpus.statFuBusyPerThread_0::FloatCmp            0      0.00%      1.14% # Number of instructions structural stalls per FU type, per thread (Count)
system.cpu_cluster.cpus.statFuBusyPerThread_0::FloatCvt            0      0.00%      1.14% # Number of instructions structural stalls per FU type, per thread (Count)
system.cpu_cluster.cpus.statFuBusyPerThread_0::FloatMult            0      0.00%      1.14% # Number of instructions structural stalls per FU type, per thread (Count)
system.cpu_cluster.cpus.statFuBusyPerThread_0::FloatMultAcc            0      0.00%      1.14% # Number of instructions structural stalls per FU type, per thread (Count)
system.cpu_cluster.cpus.statFuBusyPerThread_0::FloatDiv            0      0.00%      1.14% # Number of instructions structural stalls per FU type, per thread (Count)
system.cpu_cluster.cpus.statFuBusyPerThread_0::FloatMisc            0      0.00%      1.14% # Number of instructions structural stalls per FU type, per thread (Count)
system.cpu_cluster.cpus.statFuBusyPerThread_0::FloatSqrt            0      0.00%      1.14% # Number of instructions structural stalls per FU type, per thread (Count)
system.cpu_cluster.cpus.statFuBusyPerThread_0::SimdAdd            0      0.00%      1.14% # Number of instructions structural stalls per FU type, per thread (Count)
system.cpu_cluster.cpus.statFuBusyPerThread_0::SimdAddAcc            0      0.00%      1.14% # Number of instructions structural stalls per FU type, per thread (Count)
system.cpu_cluster.cpus.statFuBusyPerThread_0::SimdAlu            0      0.00%      1.14% # Number of instructions structural stalls per FU type, per thread (Count)
system.cpu_cluster.cpus.statFuBusyPerThread_0::SimdCmp            0      0.00%      1.14% # Number of instructions structural stalls per FU type, per thread (Count)
system.cpu_cluster.cpus.statFuBusyPerThread_0::SimdCvt            0      0.00%      1.14% # Number of instructions structural stalls per FU type, per thread (Count)
system.cpu_cluster.cpus.statFuBusyPerThread_0::SimdMisc            0      0.00%      1.14% # Number of instructions structural stalls per FU type, per thread (Count)
system.cpu_cluster.cpus.statFuBusyPerThread_0::SimdMult            0      0.00%      1.14% # Number of instructions structural stalls per FU type, per thread (Count)
system.cpu_cluster.cpus.statFuBusyPerThread_0::SimdMultAcc            0      0.00%      1.14% # Number of instructions structural stalls per FU type, per thread (Count)
system.cpu_cluster.cpus.statFuBusyPerThread_0::SimdShift            0      0.00%      1.14% # Number of instructions structural stalls per FU type, per thread (Count)
system.cpu_cluster.cpus.statFuBusyPerThread_0::SimdShiftAcc            0      0.00%      1.14% # Number of instructions structural stalls per FU type, per thread (Count)
system.cpu_cluster.cpus.statFuBusyPerThread_0::SimdDiv            0      0.00%      1.14% # Number of instructions structural stalls per FU type, per thread (Count)
system.cpu_cluster.cpus.statFuBusyPerThread_0::SimdSqrt            0      0.00%      1.14% # Number of instructions structural stalls per FU type, per thread (Count)
system.cpu_cluster.cpus.statFuBusyPerThread_0::SimdFloatAdd            0      0.00%      1.14% # Number of instructions structural stalls per FU type, per thread (Count)
system.cpu_cluster.cpus.statFuBusyPerThread_0::SimdFloatAlu            0      0.00%      1.14% # Number of instructions structural stalls per FU type, per thread (Count)
system.cpu_cluster.cpus.statFuBusyPerThread_0::SimdFloatCmp            0      0.00%      1.14% # Number of instructions structural stalls per FU type, per thread (Count)
system.cpu_cluster.cpus.statFuBusyPerThread_0::SimdFloatCvt            0      0.00%      1.14% # Number of instructions structural stalls per FU type, per thread (Count)
system.cpu_cluster.cpus.statFuBusyPerThread_0::SimdFloatDiv            0      0.00%      1.14% # Number of instructions structural stalls per FU type, per thread (Count)
system.cpu_cluster.cpus.statFuBusyPerThread_0::SimdFloatMisc            0      0.00%      1.14% # Number of instructions structural stalls per FU type, per thread (Count)
system.cpu_cluster.cpus.statFuBusyPerThread_0::SimdFloatMult            0      0.00%      1.14% # Number of instructions structural stalls per FU type, per thread (Count)
system.cpu_cluster.cpus.statFuBusyPerThread_0::SimdFloatMultAcc            0      0.00%      1.14% # Number of instructions structural stalls per FU type, per thread (Count)
system.cpu_cluster.cpus.statFuBusyPerThread_0::SimdFloatSqrt            0      0.00%      1.14% # Number of instructions structural stalls per FU type, per thread (Count)
system.cpu_cluster.cpus.statFuBusyPerThread_0::SimdReduceAdd            0      0.00%      1.14% # Number of instructions structural stalls per FU type, per thread (Count)
system.cpu_cluster.cpus.statFuBusyPerThread_0::SimdReduceAlu            0      0.00%      1.14% # Number of instructions structural stalls per FU type, per thread (Count)
system.cpu_cluster.cpus.statFuBusyPerThread_0::SimdReduceCmp            0      0.00%      1.14% # Number of instructions structural stalls per FU type, per thread (Count)
system.cpu_cluster.cpus.statFuBusyPerThread_0::SimdFloatReduceAdd            0      0.00%      1.14% # Number of instructions structural stalls per FU type, per thread (Count)
system.cpu_cluster.cpus.statFuBusyPerThread_0::SimdFloatReduceCmp            0      0.00%      1.14% # Number of instructions structural stalls per FU type, per thread (Count)
system.cpu_cluster.cpus.statFuBusyPerThread_0::SimdAes            0      0.00%      1.14% # Number of instructions structural stalls per FU type, per thread (Count)
system.cpu_cluster.cpus.statFuBusyPerThread_0::SimdAesMix            0      0.00%      1.14% # Number of instructions structural stalls per FU type, per thread (Count)
system.cpu_cluster.cpus.statFuBusyPerThread_0::SimdSha1Hash            0      0.00%      1.14% # Number of instructions structural stalls per FU type, per thread (Count)
system.cpu_cluster.cpus.statFuBusyPerThread_0::SimdSha1Hash2            0      0.00%      1.14% # Number of instructions structural stalls per FU type, per thread (Count)
system.cpu_cluster.cpus.statFuBusyPerThread_0::SimdSha256Hash            0      0.00%      1.14% # Number of instructions structural stalls per FU type, per thread (Count)
system.cpu_cluster.cpus.statFuBusyPerThread_0::SimdSha256Hash2            0      0.00%      1.14% # Number of instructions structural stalls per FU type, per thread (Count)
system.cpu_cluster.cpus.statFuBusyPerThread_0::SimdShaSigma2            0      0.00%      1.14% # Number of instructions structural stalls per FU type, per thread (Count)
system.cpu_cluster.cpus.statFuBusyPerThread_0::SimdShaSigma3            0      0.00%      1.14% # Number of instructions structural stalls per FU type, per thread (Count)
system.cpu_cluster.cpus.statFuBusyPerThread_0::SimdPredAlu            0      0.00%      1.14% # Number of instructions structural stalls per FU type, per thread (Count)
system.cpu_cluster.cpus.statFuBusyPerThread_0::MemRead         1038     98.86%    100.00% # Number of instructions structural stalls per FU type, per thread (Count)
system.cpu_cluster.cpus.statFuBusyPerThread_0::MemWrite            0      0.00%    100.00% # Number of instructions structural stalls per FU type, per thread (Count)
system.cpu_cluster.cpus.statFuBusyPerThread_0::FloatMemRead            0      0.00%    100.00% # Number of instructions structural stalls per FU type, per thread (Count)
system.cpu_cluster.cpus.statFuBusyPerThread_0::FloatMemWrite            0      0.00%    100.00% # Number of instructions structural stalls per FU type, per thread (Count)
system.cpu_cluster.cpus.statFuBusyPerThread_0::IprAccess            0      0.00%    100.00% # Number of instructions structural stalls per FU type, per thread (Count)
system.cpu_cluster.cpus.statFuBusyPerThread_0::InstPrefetch            0      0.00%    100.00% # Number of instructions structural stalls per FU type, per thread (Count)
system.cpu_cluster.cpus.statFuBusyPerThread_0::total         1050                       # Number of instructions structural stalls per FU type, per thread (Count)
system.cpu_cluster.cpus.statFuBusyPerThread_1::No_OpClass            0                       # Number of instructions structural stalls per FU type, per thread (Count)
system.cpu_cluster.cpus.statFuBusyPerThread_1::IntAlu            0                       # Number of instructions structural stalls per FU type, per thread (Count)
system.cpu_cluster.cpus.statFuBusyPerThread_1::IntMult            0                       # Number of instructions structural stalls per FU type, per thread (Count)
system.cpu_cluster.cpus.statFuBusyPerThread_1::IntDiv            0                       # Number of instructions structural stalls per FU type, per thread (Count)
system.cpu_cluster.cpus.statFuBusyPerThread_1::FloatAdd            0                       # Number of instructions structural stalls per FU type, per thread (Count)
system.cpu_cluster.cpus.statFuBusyPerThread_1::FloatCmp            0                       # Number of instructions structural stalls per FU type, per thread (Count)
system.cpu_cluster.cpus.statFuBusyPerThread_1::FloatCvt            0                       # Number of instructions structural stalls per FU type, per thread (Count)
system.cpu_cluster.cpus.statFuBusyPerThread_1::FloatMult            0                       # Number of instructions structural stalls per FU type, per thread (Count)
system.cpu_cluster.cpus.statFuBusyPerThread_1::FloatMultAcc            0                       # Number of instructions structural stalls per FU type, per thread (Count)
system.cpu_cluster.cpus.statFuBusyPerThread_1::FloatDiv            0                       # Number of instructions structural stalls per FU type, per thread (Count)
system.cpu_cluster.cpus.statFuBusyPerThread_1::FloatMisc            0                       # Number of instructions structural stalls per FU type, per thread (Count)
system.cpu_cluster.cpus.statFuBusyPerThread_1::FloatSqrt            0                       # Number of instructions structural stalls per FU type, per thread (Count)
system.cpu_cluster.cpus.statFuBusyPerThread_1::SimdAdd            0                       # Number of instructions structural stalls per FU type, per thread (Count)
system.cpu_cluster.cpus.statFuBusyPerThread_1::SimdAddAcc            0                       # Number of instructions structural stalls per FU type, per thread (Count)
system.cpu_cluster.cpus.statFuBusyPerThread_1::SimdAlu            0                       # Number of instructions structural stalls per FU type, per thread (Count)
system.cpu_cluster.cpus.statFuBusyPerThread_1::SimdCmp            0                       # Number of instructions structural stalls per FU type, per thread (Count)
system.cpu_cluster.cpus.statFuBusyPerThread_1::SimdCvt            0                       # Number of instructions structural stalls per FU type, per thread (Count)
system.cpu_cluster.cpus.statFuBusyPerThread_1::SimdMisc            0                       # Number of instructions structural stalls per FU type, per thread (Count)
system.cpu_cluster.cpus.statFuBusyPerThread_1::SimdMult            0                       # Number of instructions structural stalls per FU type, per thread (Count)
system.cpu_cluster.cpus.statFuBusyPerThread_1::SimdMultAcc            0                       # Number of instructions structural stalls per FU type, per thread (Count)
system.cpu_cluster.cpus.statFuBusyPerThread_1::SimdShift            0                       # Number of instructions structural stalls per FU type, per thread (Count)
system.cpu_cluster.cpus.statFuBusyPerThread_1::SimdShiftAcc            0                       # Number of instructions structural stalls per FU type, per thread (Count)
system.cpu_cluster.cpus.statFuBusyPerThread_1::SimdDiv            0                       # Number of instructions structural stalls per FU type, per thread (Count)
system.cpu_cluster.cpus.statFuBusyPerThread_1::SimdSqrt            0                       # Number of instructions structural stalls per FU type, per thread (Count)
system.cpu_cluster.cpus.statFuBusyPerThread_1::SimdFloatAdd            0                       # Number of instructions structural stalls per FU type, per thread (Count)
system.cpu_cluster.cpus.statFuBusyPerThread_1::SimdFloatAlu            0                       # Number of instructions structural stalls per FU type, per thread (Count)
system.cpu_cluster.cpus.statFuBusyPerThread_1::SimdFloatCmp            0                       # Number of instructions structural stalls per FU type, per thread (Count)
system.cpu_cluster.cpus.statFuBusyPerThread_1::SimdFloatCvt            0                       # Number of instructions structural stalls per FU type, per thread (Count)
system.cpu_cluster.cpus.statFuBusyPerThread_1::SimdFloatDiv            0                       # Number of instructions structural stalls per FU type, per thread (Count)
system.cpu_cluster.cpus.statFuBusyPerThread_1::SimdFloatMisc            0                       # Number of instructions structural stalls per FU type, per thread (Count)
system.cpu_cluster.cpus.statFuBusyPerThread_1::SimdFloatMult            0                       # Number of instructions structural stalls per FU type, per thread (Count)
system.cpu_cluster.cpus.statFuBusyPerThread_1::SimdFloatMultAcc            0                       # Number of instructions structural stalls per FU type, per thread (Count)
system.cpu_cluster.cpus.statFuBusyPerThread_1::SimdFloatSqrt            0                       # Number of instructions structural stalls per FU type, per thread (Count)
system.cpu_cluster.cpus.statFuBusyPerThread_1::SimdReduceAdd            0                       # Number of instructions structural stalls per FU type, per thread (Count)
system.cpu_cluster.cpus.statFuBusyPerThread_1::SimdReduceAlu            0                       # Number of instructions structural stalls per FU type, per thread (Count)
system.cpu_cluster.cpus.statFuBusyPerThread_1::SimdReduceCmp            0                       # Number of instructions structural stalls per FU type, per thread (Count)
system.cpu_cluster.cpus.statFuBusyPerThread_1::SimdFloatReduceAdd            0                       # Number of instructions structural stalls per FU type, per thread (Count)
system.cpu_cluster.cpus.statFuBusyPerThread_1::SimdFloatReduceCmp            0                       # Number of instructions structural stalls per FU type, per thread (Count)
system.cpu_cluster.cpus.statFuBusyPerThread_1::SimdAes            0                       # Number of instructions structural stalls per FU type, per thread (Count)
system.cpu_cluster.cpus.statFuBusyPerThread_1::SimdAesMix            0                       # Number of instructions structural stalls per FU type, per thread (Count)
system.cpu_cluster.cpus.statFuBusyPerThread_1::SimdSha1Hash            0                       # Number of instructions structural stalls per FU type, per thread (Count)
system.cpu_cluster.cpus.statFuBusyPerThread_1::SimdSha1Hash2            0                       # Number of instructions structural stalls per FU type, per thread (Count)
system.cpu_cluster.cpus.statFuBusyPerThread_1::SimdSha256Hash            0                       # Number of instructions structural stalls per FU type, per thread (Count)
system.cpu_cluster.cpus.statFuBusyPerThread_1::SimdSha256Hash2            0                       # Number of instructions structural stalls per FU type, per thread (Count)
system.cpu_cluster.cpus.statFuBusyPerThread_1::SimdShaSigma2            0                       # Number of instructions structural stalls per FU type, per thread (Count)
system.cpu_cluster.cpus.statFuBusyPerThread_1::SimdShaSigma3            0                       # Number of instructions structural stalls per FU type, per thread (Count)
system.cpu_cluster.cpus.statFuBusyPerThread_1::SimdPredAlu            0                       # Number of instructions structural stalls per FU type, per thread (Count)
system.cpu_cluster.cpus.statFuBusyPerThread_1::MemRead            0                       # Number of instructions structural stalls per FU type, per thread (Count)
system.cpu_cluster.cpus.statFuBusyPerThread_1::MemWrite            0                       # Number of instructions structural stalls per FU type, per thread (Count)
system.cpu_cluster.cpus.statFuBusyPerThread_1::FloatMemRead            0                       # Number of instructions structural stalls per FU type, per thread (Count)
system.cpu_cluster.cpus.statFuBusyPerThread_1::FloatMemWrite            0                       # Number of instructions structural stalls per FU type, per thread (Count)
system.cpu_cluster.cpus.statFuBusyPerThread_1::IprAccess            0                       # Number of instructions structural stalls per FU type, per thread (Count)
system.cpu_cluster.cpus.statFuBusyPerThread_1::InstPrefetch            0                       # Number of instructions structural stalls per FU type, per thread (Count)
system.cpu_cluster.cpus.statFuBusyPerThread_1::total            0                       # Number of instructions structural stalls per FU type, per thread (Count)
system.cpu_cluster.cpus.statFuBusyPerThread::total         1050      0.00%      0.00% # Number of instructions structural stalls per FU type, per thread (Count)
system.cpu_cluster.cpus.statOlderROBNotIssuedPerThread::0            0                       # Number of times instruction not issued because older ROB instruction not issued, per thread (Count)
system.cpu_cluster.cpus.statOlderROBNotIssuedPerThread::1            0                       # Number of times instruction not issued because older ROB instruction not issued, per thread (Count)
system.cpu_cluster.cpus.statOlderROBNotIssuedPerThread::total            0                       # Number of times instruction not issued because older ROB instruction not issued, per thread (Count)
system.cpu_cluster.cpus.statOlderROBNotIssuedPerThreadRate::0            0                       # Number of times instruction not issued because older ROB instruction not issued, per thread rate (busy events/executed inst) (Count)
system.cpu_cluster.cpus.statOlderROBNotIssuedPerThreadRate::1            0                       # Number of times instruction not issued because older ROB instruction not issued, per thread rate (busy events/executed inst) (Count)
system.cpu_cluster.cpus.statStalledOnControlInstructionPerThread::0            0                       # Number of times instruction not issued because older control instruction not completed, per thread (Count)
system.cpu_cluster.cpus.statStalledOnControlInstructionPerThread::1            0                       # Number of times instruction not issued because older control instruction not completed, per thread (Count)
system.cpu_cluster.cpus.statStalledOnControlInstructionPerThread::total            0                       # Number of times instruction not issued because older control instruction not completed, per thread (Count)
system.cpu_cluster.cpus.statStalledOnControlInstructionPerThreadRate::0            0                       # Number of times instruction not issued because older control instruction not completed, per thread rate (busy events/executed inst) (Count)
system.cpu_cluster.cpus.statStalledOnControlInstructionPerThreadRate::1            0                       # Number of times instruction not issued because older control instruction not completed, per thread rate (busy events/executed inst) (Count)
system.cpu_cluster.cpus.statStalledOnMemoryReorderPerThread::0            0                       # Number of times instruction not issued because older memory instruction not completed, per thread (Count)
system.cpu_cluster.cpus.statStalledOnMemoryReorderPerThread::1            0                       # Number of times instruction not issued because older memory instruction not completed, per thread (Count)
system.cpu_cluster.cpus.statStalledOnMemoryReorderPerThread::total            0                       # Number of times instruction not issued because older memory instruction not completed, per thread (Count)
system.cpu_cluster.cpus.statStalledOnMemoryReorderPerThreadRate::0            0                       # Number of times instruction not issued because older memory instruction not completed, per thread rate (busy events/executed inst) (Count)
system.cpu_cluster.cpus.statStalledOnMemoryReorderPerThreadRate::1            0                       # Number of times instruction not issued because older memory instruction not completed, per thread rate (busy events/executed inst) (Count)
system.cpu_cluster.cpus.statStalledNotOldestInIQPerThread::0            0                       # Number of times instruction not issued because older IQ instruction not issued, per thread (Count)
system.cpu_cluster.cpus.statStalledNotOldestInIQPerThread::1            0                       # Number of times instruction not issued because older IQ instruction not issued, per thread (Count)
system.cpu_cluster.cpus.statStalledNotOldestInIQPerThread::total            0                       # Number of times instruction not issued because older IQ instruction not issued, per thread (Count)
system.cpu_cluster.cpus.statStalledNotOldestInIQPerThreadRate::0            0                       # Number of times instruction not issued because older IQ instruction not issued, per thread rate (busy events/executed inst) (Count)
system.cpu_cluster.cpus.statStalledNotOldestInIQPerThreadRate::1            0                       # Number of times instruction not issued because older IQ instruction not issued, per thread rate (busy events/executed inst) (Count)
system.cpu_cluster.cpus.statNumCheckIssuePerThread::0       357382                       # Number of times we tried to issue instructions (Count)
system.cpu_cluster.cpus.statNumCheckIssuePerThread::1            0                       # Number of times we tried to issue instructions (Count)
system.cpu_cluster.cpus.statNumCheckIssuePerThread::total       357382                       # Number of times we tried to issue instructions (Count)
system.cpu_cluster.cpus.statNumIssueNotPossiblePerThread::0         1050                       # Number of times issue not possible (Count)
system.cpu_cluster.cpus.statNumIssueNotPossiblePerThread::1            0                       # Number of times issue not possible (Count)
system.cpu_cluster.cpus.statNumIssueNotPossiblePerThread::total         1050                       # Number of times issue not possible (Count)
system.cpu_cluster.cpus.issueRate            1.536112                       # Inst issue rate ((Count/Cycle))
system.cpu_cluster.cpus.fuBusy::0                1050                       # FU busy when requested (Count)
system.cpu_cluster.cpus.fuBusy::1                   0                       # FU busy when requested (Count)
system.cpu_cluster.cpus.fuBusy::total            1050                       # FU busy when requested (Count)
system.cpu_cluster.cpus.TotalInstIssued::0       356332                       # Number of instructions issued (Count)
system.cpu_cluster.cpus.TotalInstIssued::1            0                       # Number of instructions issued (Count)
system.cpu_cluster.cpus.TotalInstIssued::total       356332                       # Number of instructions issued (Count)
system.cpu_cluster.cpus.TotalOoOInstIssued::0       226920                       # Number of instructions issued OoO (Count)
system.cpu_cluster.cpus.TotalOoOInstIssued::1            0                       # Number of instructions issued OoO (Count)
system.cpu_cluster.cpus.TotalOoOInstIssued::total       226920                       # Number of instructions issued OoO (Count)
system.cpu_cluster.cpus.fuBusyRate::0        0.002947                       # FU busy rate (busy events/executed inst) ((Count/Count))
system.cpu_cluster.cpus.fuBusyRate::1               0                       # FU busy rate (busy events/executed inst) ((Count/Count))
system.cpu_cluster.cpus.fuBusyRate::total     0.002947                       # FU busy rate (busy events/executed inst) ((Count/Count))
system.cpu_cluster.cpus.TimeSpentWaitingOnMem::0       265506                       # Time spent by instructions waiting on memory (Count)
system.cpu_cluster.cpus.TimeSpentWaitingOnMem::1            0                       # Time spent by instructions waiting on memory (Count)
system.cpu_cluster.cpus.TimeSpentWaitingOnMem::total       265506                       # Time spent by instructions waiting on memory (Count)
system.cpu_cluster.cpus.AverageInstinIQ::0     6.766176                       # Average insts in IQ for each tid (Count)
system.cpu_cluster.cpus.AverageInstinIQ::1            0                       # Average insts in IQ for each tid (Count)
system.cpu_cluster.cpus.AverageInstinIQ::total     6.766176                       # Average insts in IQ for each tid (Count)
system.cpu_cluster.cpus.AverageNonIssuedInstPerThread::0     1.377764                       # Avg number of instructions which cannot be issued (Count)
system.cpu_cluster.cpus.AverageNonIssuedInstPerThread::1            0                       # Avg number of instructions which cannot be issued (Count)
system.cpu_cluster.cpus.AverageNonIssuedInstPerThread::total     1.377764                       # Avg number of instructions which cannot be issued (Count)
system.cpu_cluster.cpus.AverageIssuedInstPerThread::0     0.490795                       # Avg number of instructions which are in flight and issued (Count)
system.cpu_cluster.cpus.AverageIssuedInstPerThread::1            0                       # Avg number of instructions which are in flight and issued (Count)
system.cpu_cluster.cpus.AverageIssuedInstPerThread::total     0.490795                       # Avg number of instructions which are in flight and issued (Count)
system.cpu_cluster.cpus.AverageInstsThread::0     9.257862                       # Avg number of instructions which are in flight+non issued (Count)
system.cpu_cluster.cpus.AverageInstsThread::1            0                       # Avg number of instructions which are in flight+non issued (Count)
system.cpu_cluster.cpus.AverageInstsThread::total     9.257862                       # Avg number of instructions which are in flight+non issued (Count)
system.cpu_cluster.cpus.AverageNonIssuedInstPerThreadDependsOnMemory::0     0.666527                       # Avg number of instructions which cannot be issued which depenend on Memory (Count)
system.cpu_cluster.cpus.AverageNonIssuedInstPerThreadDependsOnMemory::1            0                       # Avg number of instructions which cannot be issued which depenend on Memory (Count)
system.cpu_cluster.cpus.AverageNonIssuedInstPerThreadDependsOnMemory::total     0.666527                       # Avg number of instructions which cannot be issued which depenend on Memory (Count)
system.cpu_cluster.cpus.AverageNonIssuedInstPerThreadDependsOnCompute::0     0.638425                       # Avg number of instructions which cannot be issued which depenend on Compute (Count)
system.cpu_cluster.cpus.AverageNonIssuedInstPerThreadDependsOnCompute::1            0                       # Avg number of instructions which cannot be issued which depenend on Compute (Count)
system.cpu_cluster.cpus.AverageNonIssuedInstPerThreadDependsOnCompute::total     0.638425                       # Avg number of instructions which cannot be issued which depenend on Compute (Count)
system.cpu_cluster.cpus.AverageNonIssuedInstPerThreadDependsOnTotal::0     1.252327                       # Avg number of instructions which cannot be issued with total # dependencies (Count)
system.cpu_cluster.cpus.AverageNonIssuedInstPerThreadDependsOnTotal::1            0                       # Avg number of instructions which cannot be issued with total # dependencies (Count)
system.cpu_cluster.cpus.AverageNonIssuedInstPerThreadDependsOnTotal::total     1.252327                       # Avg number of instructions which cannot be issued with total # dependencies (Count)
system.cpu_cluster.cpus.AverageNonIssuedInstPerOpType::No_OpClass            0                       # Avg number of instructions which cannot be issued (Count)
system.cpu_cluster.cpus.AverageNonIssuedInstPerOpType::IntAlu            0                       # Avg number of instructions which cannot be issued (Count)
system.cpu_cluster.cpus.AverageNonIssuedInstPerOpType::IntMult            0                       # Avg number of instructions which cannot be issued (Count)
system.cpu_cluster.cpus.AverageNonIssuedInstPerOpType::IntDiv            0                       # Avg number of instructions which cannot be issued (Count)
system.cpu_cluster.cpus.AverageNonIssuedInstPerOpType::FloatAdd            0                       # Avg number of instructions which cannot be issued (Count)
system.cpu_cluster.cpus.AverageNonIssuedInstPerOpType::FloatCmp            0                       # Avg number of instructions which cannot be issued (Count)
system.cpu_cluster.cpus.AverageNonIssuedInstPerOpType::FloatCvt            0                       # Avg number of instructions which cannot be issued (Count)
system.cpu_cluster.cpus.AverageNonIssuedInstPerOpType::FloatMult            0                       # Avg number of instructions which cannot be issued (Count)
system.cpu_cluster.cpus.AverageNonIssuedInstPerOpType::FloatMultAcc            0                       # Avg number of instructions which cannot be issued (Count)
system.cpu_cluster.cpus.AverageNonIssuedInstPerOpType::FloatDiv            0                       # Avg number of instructions which cannot be issued (Count)
system.cpu_cluster.cpus.AverageNonIssuedInstPerOpType::FloatMisc            0                       # Avg number of instructions which cannot be issued (Count)
system.cpu_cluster.cpus.AverageNonIssuedInstPerOpType::FloatSqrt            0                       # Avg number of instructions which cannot be issued (Count)
system.cpu_cluster.cpus.AverageNonIssuedInstPerOpType::SimdAdd            0                       # Avg number of instructions which cannot be issued (Count)
system.cpu_cluster.cpus.AverageNonIssuedInstPerOpType::SimdAddAcc            0                       # Avg number of instructions which cannot be issued (Count)
system.cpu_cluster.cpus.AverageNonIssuedInstPerOpType::SimdAlu            0                       # Avg number of instructions which cannot be issued (Count)
system.cpu_cluster.cpus.AverageNonIssuedInstPerOpType::SimdCmp            0                       # Avg number of instructions which cannot be issued (Count)
system.cpu_cluster.cpus.AverageNonIssuedInstPerOpType::SimdCvt            0                       # Avg number of instructions which cannot be issued (Count)
system.cpu_cluster.cpus.AverageNonIssuedInstPerOpType::SimdMisc            0                       # Avg number of instructions which cannot be issued (Count)
system.cpu_cluster.cpus.AverageNonIssuedInstPerOpType::SimdMult            0                       # Avg number of instructions which cannot be issued (Count)
system.cpu_cluster.cpus.AverageNonIssuedInstPerOpType::SimdMultAcc            0                       # Avg number of instructions which cannot be issued (Count)
system.cpu_cluster.cpus.AverageNonIssuedInstPerOpType::SimdShift            0                       # Avg number of instructions which cannot be issued (Count)
system.cpu_cluster.cpus.AverageNonIssuedInstPerOpType::SimdShiftAcc            0                       # Avg number of instructions which cannot be issued (Count)
system.cpu_cluster.cpus.AverageNonIssuedInstPerOpType::SimdDiv            0                       # Avg number of instructions which cannot be issued (Count)
system.cpu_cluster.cpus.AverageNonIssuedInstPerOpType::SimdSqrt            0                       # Avg number of instructions which cannot be issued (Count)
system.cpu_cluster.cpus.AverageNonIssuedInstPerOpType::SimdFloatAdd            0                       # Avg number of instructions which cannot be issued (Count)
system.cpu_cluster.cpus.AverageNonIssuedInstPerOpType::SimdFloatAlu            0                       # Avg number of instructions which cannot be issued (Count)
system.cpu_cluster.cpus.AverageNonIssuedInstPerOpType::SimdFloatCmp            0                       # Avg number of instructions which cannot be issued (Count)
system.cpu_cluster.cpus.AverageNonIssuedInstPerOpType::SimdFloatCvt            0                       # Avg number of instructions which cannot be issued (Count)
system.cpu_cluster.cpus.AverageNonIssuedInstPerOpType::SimdFloatDiv            0                       # Avg number of instructions which cannot be issued (Count)
system.cpu_cluster.cpus.AverageNonIssuedInstPerOpType::SimdFloatMisc            0                       # Avg number of instructions which cannot be issued (Count)
system.cpu_cluster.cpus.AverageNonIssuedInstPerOpType::SimdFloatMult            0                       # Avg number of instructions which cannot be issued (Count)
system.cpu_cluster.cpus.AverageNonIssuedInstPerOpType::SimdFloatMultAcc            0                       # Avg number of instructions which cannot be issued (Count)
system.cpu_cluster.cpus.AverageNonIssuedInstPerOpType::SimdFloatSqrt            0                       # Avg number of instructions which cannot be issued (Count)
system.cpu_cluster.cpus.AverageNonIssuedInstPerOpType::SimdReduceAdd            0                       # Avg number of instructions which cannot be issued (Count)
system.cpu_cluster.cpus.AverageNonIssuedInstPerOpType::SimdReduceAlu            0                       # Avg number of instructions which cannot be issued (Count)
system.cpu_cluster.cpus.AverageNonIssuedInstPerOpType::SimdReduceCmp            0                       # Avg number of instructions which cannot be issued (Count)
system.cpu_cluster.cpus.AverageNonIssuedInstPerOpType::SimdFloatReduceAdd            0                       # Avg number of instructions which cannot be issued (Count)
system.cpu_cluster.cpus.AverageNonIssuedInstPerOpType::SimdFloatReduceCmp            0                       # Avg number of instructions which cannot be issued (Count)
system.cpu_cluster.cpus.AverageNonIssuedInstPerOpType::SimdAes            0                       # Avg number of instructions which cannot be issued (Count)
system.cpu_cluster.cpus.AverageNonIssuedInstPerOpType::SimdAesMix            0                       # Avg number of instructions which cannot be issued (Count)
system.cpu_cluster.cpus.AverageNonIssuedInstPerOpType::SimdSha1Hash            0                       # Avg number of instructions which cannot be issued (Count)
system.cpu_cluster.cpus.AverageNonIssuedInstPerOpType::SimdSha1Hash2            0                       # Avg number of instructions which cannot be issued (Count)
system.cpu_cluster.cpus.AverageNonIssuedInstPerOpType::SimdSha256Hash            0                       # Avg number of instructions which cannot be issued (Count)
system.cpu_cluster.cpus.AverageNonIssuedInstPerOpType::SimdSha256Hash2            0                       # Avg number of instructions which cannot be issued (Count)
system.cpu_cluster.cpus.AverageNonIssuedInstPerOpType::SimdShaSigma2            0                       # Avg number of instructions which cannot be issued (Count)
system.cpu_cluster.cpus.AverageNonIssuedInstPerOpType::SimdShaSigma3            0                       # Avg number of instructions which cannot be issued (Count)
[...]
system.mem_ctrls1.dram.perBankRdBursts::13            0                       # Per bank write bursts (Count)
system.mem_ctrls1.dram.perBankRdBursts::14           19                       # Per bank write bursts (Count)
system.mem_ctrls1.dram.perBankRdBursts::15            0                       # Per bank write bursts (Count)
system.mem_ctrls1.dram.perBankRdBursts::16            7                       # Per bank write bursts (Count)
system.mem_ctrls1.dram.perBankRdBursts::17            2                       # Per bank write bursts (Count)
system.mem_ctrls1.dram.perBankRdBursts::18            0                       # Per bank write bursts (Count)
system.mem_ctrls1.dram.perBankRdBursts::19            0                       # Per bank write bursts (Count)
system.mem_ctrls1.dram.perBankRdBursts::20           46                       # Per bank write bursts (Count)
system.mem_ctrls1.dram.perBankRdBursts::21            1                       # Per bank write bursts (Count)
system.mem_ctrls1.dram.perBankRdBursts::22            8                       # Per bank write bursts (Count)
system.mem_ctrls1.dram.perBankRdBursts::23            1                       # Per bank write bursts (Count)
system.mem_ctrls1.dram.perBankRdBursts::24            1                       # Per bank write bursts (Count)
system.mem_ctrls1.dram.perBankRdBursts::25            1                       # Per bank write bursts (Count)
system.mem_ctrls1.dram.perBankRdBursts::26            0                       # Per bank write bursts (Count)
system.mem_ctrls1.dram.perBankRdBursts::27            0                       # Per bank write bursts (Count)
system.mem_ctrls1.dram.perBankRdBursts::28            2                       # Per bank write bursts (Count)
system.mem_ctrls1.dram.perBankRdBursts::29            4                       # Per bank write bursts (Count)
system.mem_ctrls1.dram.perBankRdBursts::30            0                       # Per bank write bursts (Count)
system.mem_ctrls1.dram.perBankRdBursts::31            0                       # Per bank write bursts (Count)
system.mem_ctrls1.dram.perBankWrBursts::0            0                       # Per bank write bursts (Count)
system.mem_ctrls1.dram.perBankWrBursts::1            0                       # Per bank write bursts (Count)
system.mem_ctrls1.dram.perBankWrBursts::2            0                       # Per bank write bursts (Count)
system.mem_ctrls1.dram.perBankWrBursts::3            0                       # Per bank write bursts (Count)
system.mem_ctrls1.dram.perBankWrBursts::4            0                       # Per bank write bursts (Count)
system.mem_ctrls1.dram.perBankWrBursts::5            0                       # Per bank write bursts (Count)
system.mem_ctrls1.dram.perBankWrBursts::6            0                       # Per bank write bursts (Count)
system.mem_ctrls1.dram.perBankWrBursts::7            0                       # Per bank write bursts (Count)
system.mem_ctrls1.dram.perBankWrBursts::8            0                       # Per bank write bursts (Count)
system.mem_ctrls1.dram.perBankWrBursts::9            0                       # Per bank write bursts (Count)
system.mem_ctrls1.dram.perBankWrBursts::10            0                       # Per bank write bursts (Count)
system.mem_ctrls1.dram.perBankWrBursts::11            0                       # Per bank write bursts (Count)
system.mem_ctrls1.dram.perBankWrBursts::12            0                       # Per bank write bursts (Count)
system.mem_ctrls1.dram.perBankWrBursts::13            0                       # Per bank write bursts (Count)
system.mem_ctrls1.dram.perBankWrBursts::14            0                       # Per bank write bursts (Count)
system.mem_ctrls1.dram.perBankWrBursts::15            0                       # Per bank write bursts (Count)
system.mem_ctrls1.dram.perBankWrBursts::16            0                       # Per bank write bursts (Count)
system.mem_ctrls1.dram.perBankWrBursts::17            0                       # Per bank write bursts (Count)
system.mem_ctrls1.dram.perBankWrBursts::18            0                       # Per bank write bursts (Count)
system.mem_ctrls1.dram.perBankWrBursts::19            0                       # Per bank write bursts (Count)
system.mem_ctrls1.dram.perBankWrBursts::20            0                       # Per bank write bursts (Count)
system.mem_ctrls1.dram.perBankWrBursts::21            0                       # Per bank write bursts (Count)
system.mem_ctrls1.dram.perBankWrBursts::22            0                       # Per bank write bursts (Count)
system.mem_ctrls1.dram.perBankWrBursts::23            0                       # Per bank write bursts (Count)
system.mem_ctrls1.dram.perBankWrBursts::24            0                       # Per bank write bursts (Count)
system.mem_ctrls1.dram.perBankWrBursts::25            0                       # Per bank write bursts (Count)
system.mem_ctrls1.dram.perBankWrBursts::26            0                       # Per bank write bursts (Count)
system.mem_ctrls1.dram.perBankWrBursts::27            0                       # Per bank write bursts (Count)
system.mem_ctrls1.dram.perBankWrBursts::28            0                       # Per bank write bursts (Count)
system.mem_ctrls1.dram.perBankWrBursts::29            0                       # Per bank write bursts (Count)
system.mem_ctrls1.dram.perBankWrBursts::30            0                       # Per bank write bursts (Count)
system.mem_ctrls1.dram.perBankWrBursts::31            0                       # Per bank write bursts (Count)
system.mem_ctrls1.dram.totQLat                1056198                       # Total ticks spent queuing (Tick)
system.mem_ctrls1.dram.totBusLat               573104                       # Total ticks spent in databus transfers (Tick)
system.mem_ctrls1.dram.totMemAccLat           4064822                       # Total ticks spent from burst creation until serviced by the DRAM (Tick)
system.mem_ctrls1.dram.avgQLat                6140.69                       # Average queueing delay per DRAM burst ((Tick/Count))
system.mem_ctrls1.dram.avgBusLat              3332.00                       # Average bus latency per DRAM burst ((Tick/Count))
system.mem_ctrls1.dram.avgMemAccLat          23632.69                       # Average memory access latency per DRAM burst ((Tick/Count))
system.mem_ctrls1.dram.readRowHits                136                       # Number of row buffer hits during reads (Count)
system.mem_ctrls1.dram.writeRowHits                 0                       # Number of row buffer hits during writes (Count)
system.mem_ctrls1.dram.readRowHitRate           79.07                       # Row buffer hit rate for reads (Ratio)
system.mem_ctrls1.dram.writeRowHitRate            nan                       # Row buffer hit rate for writes (Ratio)
system.mem_ctrls1.dram.bytesPerActivate::samples           24                       # Bytes accessed per row activation (Byte)
system.mem_ctrls1.dram.bytesPerActivate::mean   373.333333                       # Bytes accessed per row activation (Byte)
system.mem_ctrls1.dram.bytesPerActivate::gmean   223.383432                       # Bytes accessed per row activation (Byte)
system.mem_ctrls1.dram.bytesPerActivate::stdev   367.248129                       # Bytes accessed per row activation (Byte)
system.mem_ctrls1.dram.bytesPerActivate::0-127            7     29.17%     29.17% # Bytes accessed per row activation (Byte)
system.mem_ctrls1.dram.bytesPerActivate::128-255            6     25.00%     54.17% # Bytes accessed per row activation (Byte)
system.mem_ctrls1.dram.bytesPerActivate::256-383            3     12.50%     66.67% # Bytes accessed per row activation (Byte)
system.mem_ctrls1.dram.bytesPerActivate::384-511            1      4.17%     70.83% # Bytes accessed per row activation (Byte)
system.mem_ctrls1.dram.bytesPerActivate::640-767            2      8.33%     79.17% # Bytes accessed per row activation (Byte)
system.mem_ctrls1.dram.bytesPerActivate::768-895            1      4.17%     83.33% # Bytes accessed per row activation (Byte)
system.mem_ctrls1.dram.bytesPerActivate::1024-1151            4     16.67%    100.00% # Bytes accessed per row activation (Byte)
system.mem_ctrls1.dram.bytesPerActivate::total           24                       # Bytes accessed per row activation (Byte)
system.mem_ctrls1.dram.bytesRead                11008                       # Total bytes read (Byte)
system.mem_ctrls1.dram.bytesWritten                 0                       # Total bytes written (Byte)
system.mem_ctrls1.dram.avgRdBW             922.348604                       # Average DRAM read bandwidth in MiBytes/s ((Byte/Second))
system.mem_ctrls1.dram.avgWrBW                      0                       # Average DRAM write bandwidth in MiBytes/s ((Byte/Second))
system.mem_ctrls1.dram.peakBW                19207.00                       # Theoretical peak bandwidth in MiByte/s ((Byte/Second))
system.mem_ctrls1.dram.busUtil                   4.80                       # Data bus utilization in percentage (Ratio)
system.mem_ctrls1.dram.busUtilRead               4.80                       # Data bus utilization in percentage for reads (Ratio)
system.mem_ctrls1.dram.busUtilWrite              0.00                       # Data bus utilization in percentage for writes (Ratio)
system.mem_ctrls1.dram.pageHitRate              79.07                       # Row buffer hit rate, read and write combined (Ratio)
system.mem_ctrls1.dram.power_state.pwrStateResidencyTicks::UNDEFINED     11934750                       # Cumulative time (in ticks) in various power states (Tick)
system.mem_ctrls1.dram.rank0.actEnergy   59256.288000                       # Energy for activate commands per rank (pJ) (Joule)
system.mem_ctrls1.dram.rank0.preEnergy   58048.771200                       # Energy for precharge commands per rank (pJ) (Joule)
system.mem_ctrls1.dram.rank0.readEnergy  416425.363200                       # Energy for read commands per rank (pJ) (Joule)
system.mem_ctrls1.dram.rank0.writeEnergy            0                       # Energy for write commands per rank (pJ) (Joule)
system.mem_ctrls1.dram.rank0.refreshEnergy 1385377.627200                       # Energy for refresh commands per rank (pJ) (Joule)
system.mem_ctrls1.dram.rank0.actBackEnergy 9113269.233600                       # Energy for active background per rank (pJ) (Joule)
system.mem_ctrls1.dram.rank0.preBackEnergy 789028.262400                       # Energy for precharge background per rank (pJ) (Joule)
system.mem_ctrls1.dram.rank0.actPowerDownEnergy            0                       # Energy for active power-down per rank (pJ) (Joule)
system.mem_ctrls1.dram.rank0.prePowerDownEnergy            0                       # Energy for precharge power-down per rank (pJ) (Joule)
system.mem_ctrls1.dram.rank0.selfRefreshEnergy            0                       # Energy for self refresh per rank (pJ) (Joule)
system.mem_ctrls1.dram.rank0.totalEnergy 11821405.545600                       # Total energy per rank (pJ) (Joule)
system.mem_ctrls1.dram.rank0.averagePower   990.502989                       # Core power per rank (mW) (Watt)
system.mem_ctrls1.dram.rank0.totalIdleTime            0                       # Total Idle time Per DRAM Rank (Tick)
system.mem_ctrls1.dram.rank0.pwrStateTime::IDLE      1181090                       # Time in different power states (Tick)
system.mem_ctrls1.dram.rank0.pwrStateTime::REF       350000                       # Time in different power states (Tick)
system.mem_ctrls1.dram.rank0.pwrStateTime::SREF            0                       # Time in different power states (Tick)
system.mem_ctrls1.dram.rank0.pwrStateTime::PRE_PDN            0                       # Time in different power states (Tick)
system.mem_ctrls1.dram.rank0.pwrStateTime::ACT     10403660                       # Time in different power states (Tick)
system.mem_ctrls1.dram.rank0.pwrStateTime::ACT_PDN            0                       # Time in different power states (Tick)
system.mem_ctrls1.dram.rank1.actEnergy   53018.784000                       # Energy for activate commands per rank (pJ) (Joule)
system.mem_ctrls1.dram.rank1.preEnergy   41463.408000                       # Energy for precharge commands per rank (pJ) (Joule)
system.mem_ctrls1.dram.rank1.readEnergy  307061.126400                       # Energy for read commands per rank (pJ) (Joule)
system.mem_ctrls1.dram.rank1.writeEnergy            0                       # Energy for write commands per rank (pJ) (Joule)
system.mem_ctrls1.dram.rank1.refreshEnergy 1385377.627200                       # Energy for refresh commands per rank (pJ) (Joule)
system.mem_ctrls1.dram.rank1.actBackEnergy 10116811.656000                       # Energy for active background per rank (pJ) (Joule)
system.mem_ctrls1.dram.rank1.preBackEnergy 17944.819200                       # Energy for precharge background per rank (pJ) (Joule)
system.mem_ctrls1.dram.rank1.actPowerDownEnergy            0                       # Energy for active power-down per rank (pJ) (Joule)
system.mem_ctrls1.dram.rank1.prePowerDownEnergy            0                       # Energy for precharge power-down per rank (pJ) (Joule)
system.mem_ctrls1.dram.rank1.selfRefreshEnergy            0                       # Energy for self refresh per rank (pJ) (Joule)
system.mem_ctrls1.dram.rank1.totalEnergy 11921677.420800                       # Total energy per rank (pJ) (Joule)
system.mem_ctrls1.dram.rank1.averagePower   998.904663                       # Core power per rank (mW) (Watt)
system.mem_ctrls1.dram.rank1.totalIdleTime            0                       # Total Idle time Per DRAM Rank (Tick)
system.mem_ctrls1.dram.rank1.pwrStateTime::IDLE            0                       # Time in different power states (Tick)
system.mem_ctrls1.dram.rank1.pwrStateTime::REF       350000                       # Time in different power states (Tick)
system.mem_ctrls1.dram.rank1.pwrStateTime::SREF            0                       # Time in different power states (Tick)
system.mem_ctrls1.dram.rank1.pwrStateTime::PRE_PDN            0                       # Time in different power states (Tick)
system.mem_ctrls1.dram.rank1.pwrStateTime::ACT     11584750                       # Time in different power states (Tick)
system.mem_ctrls1.dram.rank1.pwrStateTime::ACT_PDN            0                       # Time in different power states (Tick)
system.mem_ctrls1.power_state.pwrStateResidencyTicks::UNDEFINED     11934750                       # Cumulative time (in ticks) in various power states (Tick)
system.membus.transDist::ReadResp                 313                       # Transaction distribution (Count)
system.membus.transDist::ReadExReq                 20                       # Transaction distribution (Count)
system.membus.transDist::ReadExResp                20                       # Transaction distribution (Count)
system.membus.transDist::ReadCleanReq             314                       # Transaction distribution (Count)
system.membus.pktCount_system.cpu_cluster.l2.mem_side_port::system.mem_ctrls0.port          324                       # Packet count per connected requestor and responder (Count)
system.membus.pktCount_system.cpu_cluster.l2.mem_side_port::system.mem_ctrls1.port          343                       # Packet count per connected requestor and responder (Count)
system.membus.pktCount_system.cpu_cluster.l2.mem_side_port::total          667                       # Packet count per connected requestor and responder (Count)
system.membus.pktCount::total                     667                       # Packet count per connected requestor and responder (Count)
system.membus.pktSize_system.cpu_cluster.l2.mem_side_port::system.mem_ctrls0.port        10368                       # Cumulative packet size per connected requestor and responder (Byte)
system.membus.pktSize_system.cpu_cluster.l2.mem_side_port::system.mem_ctrls1.port        10944                       # Cumulative packet size per connected requestor and responder (Byte)
system.membus.pktSize_system.cpu_cluster.l2.mem_side_port::total        21312                       # Cumulative packet size per connected requestor and responder (Byte)
system.membus.pktSize::total                    21312                       # Cumulative packet size per connected requestor and responder (Byte)
system.membus.snoops                                0                       # Total snoops (Count)
system.membus.snoopTraffic                          0                       # Total snoop traffic (Byte)
system.membus.snoopFanout::samples                334                       # Request fanout histogram (Count)
system.membus.snoopFanout::mean                     0                       # Request fanout histogram (Count)
system.membus.snoopFanout::stdev                    0                       # Request fanout histogram (Count)
system.membus.snoopFanout::underflows               0      0.00%      0.00% # Request fanout histogram (Count)
system.membus.snoopFanout::0                      334    100.00%    100.00% # Request fanout histogram (Count)
system.membus.snoopFanout::1                        0      0.00%    100.00% # Request fanout histogram (Count)
system.membus.snoopFanout::overflows                0      0.00%    100.00% # Request fanout histogram (Count)
system.membus.snoopFanout::min_value                0                       # Request fanout histogram (Count)
system.membus.snoopFanout::max_value                0                       # Request fanout histogram (Count)
system.membus.snoopFanout::total                  334                       # Request fanout histogram (Count)
system.membus.power_state.pwrStateResidencyTicks::UNDEFINED     11934750                       # Cumulative time (in ticks) in various power states (Tick)
system.membus.reqLayer0.occupancy              233249                       # Layer occupancy (ticks) (Tick)
system.membus.reqLayer0.utilization               0.0                       # Layer utilization (Ratio)
system.membus.reqLayer1.occupancy              238500                       # Layer occupancy (ticks) (Tick)
system.membus.reqLayer1.utilization               0.0                       # Layer utilization (Ratio)
system.membus.respLayer1.occupancy            1776024                       # Layer occupancy (ticks) (Tick)
system.membus.respLayer1.utilization              0.1                       # Layer utilization (Ratio)
system.membus.snoop_filter.totRequests            334                       # Total number of requests made to the snoop filter. (Count)
system.membus.snoop_filter.hitSingleRequests            2                       # Number of requests hitting in the snoop filter with a single holder of the requested data. (Count)
system.membus.snoop_filter.hitMultiRequests            0                       # Number of requests hitting in the snoop filter with multiple (>1) holders of the requested data. (Count)
system.membus.snoop_filter.totSnoops                0                       # Total number of snoops made to the snoop filter. (Count)
system.membus.snoop_filter.hitSingleSnoops            0                       # Number of snoops hitting in the snoop filter with a single holder of the requested data. (Count)
system.membus.snoop_filter.hitMultiSnoops            0                       # Number of snoops hitting in the snoop filter with multiple (>1) holders of the requested data. (Count)
system.voltage_domain.voltage                3.300000                       # Voltage in Volts (Volt)
system.workload.inst.arm                            0                       # number of arm instructions executed (Count)
system.workload.inst.quiesce                        0                       # number of quiesce instructions executed (Count)

---------- End Simulation Statistics   ----------
