
---------- Begin Simulation Statistics ----------
simSeconds                                   0.000057                       # Number of seconds simulated (Second)
simTicks                                     57449250                       # Number of ticks simulated (Tick)
finalTick                                    57449250                       # Number of ticks from beginning of simulation (restored from checkpoints and never reset) (Tick)
simFreq                                  1000000000000                       # The number of ticks per simulated second ((Tick/Second))
hostSeconds                                      2.25                       # Real time elapsed on the host (Second)
hostTickRate                                 25494768                       # The number of ticks simulated per host second (ticks/s) ((Tick/Second))
hostMemory                                    2261916                       # Number of bytes of host memory used (Byte)
simInsts                                       295406                       # Number of instructions simulated (Count)
simOps                                         338284                       # Number of ops (including micro ops) simulated (Count)
hostInstRate                                   131092                       # Simulator instruction rate (inst/s) ((Count/Second))
hostOpRate                                     150119                       # Simulator op (including micro ops) rate (op/s) ((Count/Second))
system.clk_domain.clock                          1000                       # Clock period in ticks (Tick)
system.cpu_cluster.clk_domain.clock               250                       # Clock period in ticks (Tick)
system.cpu_cluster.cpus.numCycles              229798                       # Number of cpu cycles simulated (Cycle)
system.cpu_cluster.cpus.numWorkItemsStarted            0                       # Number of work items this cpu started (Count)
system.cpu_cluster.cpus.numWorkItemsCompleted            0                       # Number of work items this cpu completed (Count)
system.cpu_cluster.cpus.instsAdded             350942                       # Number of instructions added to the IQ (excludes non-spec) (Count)
system.cpu_cluster.cpus.nonSpecInstsAdded           52                       # Number of non-speculative instructions added to the IQ (Count)
system.cpu_cluster.cpus.instsIssued            350055                       # Number of instructions issued (Count)
system.cpu_cluster.cpus.NoReadyInst            110904                       # No instructions ready in this cycle (Count)
system.cpu_cluster.cpus.ReadyInstMoreThanBW        49304                       # More ready instructions than available bandwidth (Count)
system.cpu_cluster.cpus.squashedInstsIssued          310                       # Number of squashed instructions issued (Count)
system.cpu_cluster.cpus.squashedInstsExamined        12699                       # Number of squashed instructions iterated over during squash; mainly for profiling (Count)
system.cpu_cluster.cpus.squashedOperandsExamined         7744                       # Number of squashed operands that are examined and possibly removed from graph (Count)
system.cpu_cluster.cpus.squashedNonSpecRemoved           15                       # Number of squashed non-spec instructions that were removed (Count)
system.cpu_cluster.cpus.fuBusyS                   846                       # FU busy when requested (Count)
system.cpu_cluster.cpus.numIssuedDist::samples       229798                       # Number of insts issued each cycle (Count)
system.cpu_cluster.cpus.numIssuedDist::mean     1.523316                       # Number of insts issued each cycle (Count)
system.cpu_cluster.cpus.numIssuedDist::stdev     1.659368                       # Number of insts issued each cycle (Count)
system.cpu_cluster.cpus.numIssuedDist::underflows            0      0.00%      0.00% # Number of insts issued each cycle (Count)
system.cpu_cluster.cpus.numIssuedDist::0       110904     48.26%     48.26% # Number of insts issued each cycle (Count)
system.cpu_cluster.cpus.numIssuedDist::1        15236      6.63%     54.89% # Number of insts issued each cycle (Count)
system.cpu_cluster.cpus.numIssuedDist::2        25459     11.08%     65.97% # Number of insts issued each cycle (Count)
system.cpu_cluster.cpus.numIssuedDist::3        28895     12.57%     78.54% # Number of insts issued each cycle (Count)
system.cpu_cluster.cpus.numIssuedDist::4        49304     21.46%    100.00% # Number of insts issued each cycle (Count)
system.cpu_cluster.cpus.numIssuedDist::overflows            0      0.00%    100.00% # Number of insts issued each cycle (Count)
system.cpu_cluster.cpus.numIssuedDist::min_value            0                       # Number of insts issued each cycle (Count)
system.cpu_cluster.cpus.numIssuedDist::max_value            4                       # Number of insts issued each cycle (Count)
system.cpu_cluster.cpus.numIssuedDist::total       229798                       # Number of insts issued each cycle (Count)
system.cpu_cluster.cpus.statFuBusy::No_OpClass            0      0.00%      0.00% # attempts to use FU when none available (Count)
system.cpu_cluster.cpus.statFuBusy::IntAlu            0      0.00%      0.00% # attempts to use FU when none available (Count)
system.cpu_cluster.cpus.statFuBusy::IntMult            0      0.00%      0.00% # attempts to use FU when none available (Count)
system.cpu_cluster.cpus.statFuBusy::IntDiv           13      1.54%      1.54% # attempts to use FU when none available (Count)
system.cpu_cluster.cpus.statFuBusy::FloatAdd            0      0.00%      1.54% # attempts to use FU when none available (Count)
system.cpu_cluster.cpus.statFuBusy::FloatCmp            0      0.00%      1.54% # attempts to use FU when none available (Count)
system.cpu_cluster.cpus.statFuBusy::FloatCvt            0      0.00%      1.54% # attempts to use FU when none available (Count)
system.cpu_cluster.cpus.statFuBusy::FloatMult            0      0.00%      1.54% # attempts to use FU when none available (Count)
system.cpu_cluster.cpus.statFuBusy::FloatMultAcc            0      0.00%      1.54% # attempts to use FU when none available (Count)
system.cpu_cluster.cpus.statFuBusy::FloatDiv            0      0.00%      1.54% # attempts to use FU when none available (Count)
system.cpu_cluster.cpus.statFuBusy::FloatMisc            0      0.00%      1.54% # attempts to use FU when none available (Count)
system.cpu_cluster.cpus.statFuBusy::FloatSqrt            0      0.00%      1.54% # attempts to use FU when none available (Count)
system.cpu_cluster.cpus.statFuBusy::SimdAdd            0      0.00%      1.54% # attempts to use FU when none available (Count)
system.cpu_cluster.cpus.statFuBusy::SimdAddAcc            0      0.00%      1.54% # attempts to use FU when none available (Count)
system.cpu_cluster.cpus.statFuBusy::SimdAlu            0      0.00%      1.54% # attempts to use FU when none available (Count)
system.cpu_cluster.cpus.statFuBusy::SimdCmp            0      0.00%      1.54% # attempts to use FU when none available (Count)
system.cpu_cluster.cpus.statFuBusy::SimdCvt            0      0.00%      1.54% # attempts to use FU when none available (Count)
system.cpu_cluster.cpus.statFuBusy::SimdMisc            0      0.00%      1.54% # attempts to use FU when none available (Count)
system.cpu_cluster.cpus.statFuBusy::SimdMult            0      0.00%      1.54% # attempts to use FU when none available (Count)
system.cpu_cluster.cpus.statFuBusy::SimdMultAcc            0      0.00%      1.54% # attempts to use FU when none available (Count)
system.cpu_cluster.cpus.statFuBusy::SimdShift            0      0.00%      1.54% # attempts to use FU when none available (Count)
system.cpu_cluster.cpus.statFuBusy::SimdShiftAcc            0      0.00%      1.54% # attempts to use FU when none available (Count)
system.cpu_cluster.cpus.statFuBusy::SimdDiv            0      0.00%      1.54% # attempts to use FU when none available (Count)
system.cpu_cluster.cpus.statFuBusy::SimdSqrt            0      0.00%      1.54% # attempts to use FU when none available (Count)
system.cpu_cluster.cpus.statFuBusy::SimdFloatAdd            0      0.00%      1.54% # attempts to use FU when none available (Count)
system.cpu_cluster.cpus.statFuBusy::SimdFloatAlu            0      0.00%      1.54% # attempts to use FU when none available (Count)
system.cpu_cluster.cpus.statFuBusy::SimdFloatCmp            0      0.00%      1.54% # attempts to use FU when none available (Count)
system.cpu_cluster.cpus.statFuBusy::SimdFloatCvt            0      0.00%      1.54% # attempts to use FU when none available (Count)
system.cpu_cluster.cpus.statFuBusy::SimdFloatDiv            0      0.00%      1.54% # attempts to use FU when none available (Count)
system.cpu_cluster.cpus.statFuBusy::SimdFloatMisc            0      0.00%      1.54% # attempts to use FU when none available (Count)
system.cpu_cluster.cpus.statFuBusy::SimdFloatMult            0      0.00%      1.54% # attempts to use FU when none available (Count)
system.cpu_cluster.cpus.statFuBusy::SimdFloatMultAcc            0      0.00%      1.54% # attempts to use FU when none available (Count)
system.cpu_cluster.cpus.statFuBusy::SimdFloatSqrt            0      0.00%      1.54% # attempts to use FU when none available (Count)
system.cpu_cluster.cpus.statFuBusy::SimdReduceAdd            0      0.00%      1.54% # attempts to use FU when none available (Count)
system.cpu_cluster.cpus.statFuBusy::SimdReduceAlu            0      0.00%      1.54% # attempts to use FU when none available (Count)
system.cpu_cluster.cpus.statFuBusy::SimdReduceCmp            0      0.00%      1.54% # attempts to use FU when none available (Count)
system.cpu_cluster.cpus.statFuBusy::SimdFloatReduceAdd            0      0.00%      1.54% # attempts to use FU when none available (Count)
system.cpu_cluster.cpus.statFuBusy::SimdFloatReduceCmp            0      0.00%      1.54% # attempts to use FU when none available (Count)
system.cpu_cluster.cpus.statFuBusy::SimdAes            0      0.00%      1.54% # attempts to use FU when none available (Count)
system.cpu_cluster.cpus.statFuBusy::SimdAesMix            0      0.00%      1.54% # attempts to use FU when none available (Count)
system.cpu_cluster.cpus.statFuBusy::SimdSha1Hash            0      0.00%      1.54% # attempts to use FU when none available (Count)
system.cpu_cluster.cpus.statFuBusy::SimdSha1Hash2            0      0.00%      1.54% # attempts to use FU when none available (Count)
system.cpu_cluster.cpus.statFuBusy::SimdSha256Hash            0      0.00%      1.54% # attempts to use FU when none available (Count)
system.cpu_cluster.cpus.statFuBusy::SimdSha256Hash2            0      0.00%      1.54% # attempts to use FU when none available (Count)
system.cpu_cluster.cpus.statFuBusy::SimdShaSigma2            0      0.00%      1.54% # attempts to use FU when none available (Count)
system.cpu_cluster.cpus.statFuBusy::SimdShaSigma3            0      0.00%      1.54% # attempts to use FU when none available (Count)
system.cpu_cluster.cpus.statFuBusy::SimdPredAlu            0      0.00%      1.54% # attempts to use FU when none available (Count)
system.cpu_cluster.cpus.statFuBusy::MemRead          833     98.46%    100.00% # attempts to use FU when none available (Count)
system.cpu_cluster.cpus.statFuBusy::MemWrite            0      0.00%    100.00% # attempts to use FU when none available (Count)
system.cpu_cluster.cpus.statFuBusy::FloatMemRead            0      0.00%    100.00% # attempts to use FU when none available (Count)
system.cpu_cluster.cpus.statFuBusy::FloatMemWrite            0      0.00%    100.00% # attempts to use FU when none available (Count)
system.cpu_cluster.cpus.statFuBusy::IprAccess            0      0.00%    100.00% # attempts to use FU when none available (Count)
system.cpu_cluster.cpus.statFuBusy::InstPrefetch            0      0.00%    100.00% # attempts to use FU when none available (Count)
system.cpu_cluster.cpus.statFuNoFree::No_OpClass            0      0.00%      0.00% # attempts to use FU when none available (Count)
system.cpu_cluster.cpus.statFuNoFree::IntAlu            0      0.00%      0.00% # attempts to use FU when none available (Count)
system.cpu_cluster.cpus.statFuNoFree::IntMult            0      0.00%      0.00% # attempts to use FU when none available (Count)
system.cpu_cluster.cpus.statFuNoFree::IntDiv           13      0.51%      0.51% # attempts to use FU when none available (Count)
system.cpu_cluster.cpus.statFuNoFree::FloatAdd            0      0.00%      0.51% # attempts to use FU when none available (Count)
system.cpu_cluster.cpus.statFuNoFree::FloatCmp            0      0.00%      0.51% # attempts to use FU when none available (Count)
system.cpu_cluster.cpus.statFuNoFree::FloatCvt            0      0.00%      0.51% # attempts to use FU when none available (Count)
system.cpu_cluster.cpus.statFuNoFree::FloatMult            0      0.00%      0.51% # attempts to use FU when none available (Count)
system.cpu_cluster.cpus.statFuNoFree::FloatMultAcc            0      0.00%      0.51% # attempts to use FU when none available (Count)
system.cpu_cluster.cpus.statFuNoFree::FloatDiv            0      0.00%      0.51% # attempts to use FU when none available (Count)
system.cpu_cluster.cpus.statFuNoFree::FloatMisc            0      0.00%      0.51% # attempts to use FU when none available (Count)
system.cpu_cluster.cpus.statFuNoFree::FloatSqrt            0      0.00%      0.51% # attempts to use FU when none available (Count)
system.cpu_cluster.cpus.statFuNoFree::SimdAdd            0      0.00%      0.51% # attempts to use FU when none available (Count)
system.cpu_cluster.cpus.statFuNoFree::SimdAddAcc            0      0.00%      0.51% # attempts to use FU when none available (Count)
system.cpu_cluster.cpus.statFuNoFree::SimdAlu            1      0.04%      0.55% # attempts to use FU when none available (Count)
system.cpu_cluster.cpus.statFuNoFree::SimdCmp            0      0.00%      0.55% # attempts to use FU when none available (Count)
system.cpu_cluster.cpus.statFuNoFree::SimdCvt            0      0.00%      0.55% # attempts to use FU when none available (Count)
system.cpu_cluster.cpus.statFuNoFree::SimdMisc            0      0.00%      0.55% # attempts to use FU when none available (Count)
system.cpu_cluster.cpus.statFuNoFree::SimdMult            0      0.00%      0.55% # attempts to use FU when none available (Count)
system.cpu_cluster.cpus.statFuNoFree::SimdMultAcc            0      0.00%      0.55% # attempts to use FU when none available (Count)
system.cpu_cluster.cpus.statFuNoFree::SimdShift            0      0.00%      0.55% # attempts to use FU when none available (Count)
system.cpu_cluster.cpus.statFuNoFree::SimdShiftAcc            0      0.00%      0.55% # attempts to use FU when none available (Count)
system.cpu_cluster.cpus.statFuNoFree::SimdDiv            0      0.00%      0.55% # attempts to use FU when none available (Count)
system.cpu_cluster.cpus.statFuNoFree::SimdSqrt            0      0.00%      0.55% # attempts to use FU when none available (Count)
system.cpu_cluster.cpus.statFuNoFree::SimdFloatAdd            0      0.00%      0.55% # attempts to use FU when none available (Count)
system.cpu_cluster.cpus.statFuNoFree::SimdFloatAlu            0      0.00%      0.55% # attempts to use FU when none available (Count)
system.cpu_cluster.cpus.statFuNoFree::SimdFloatCmp            0      0.00%      0.55% # attempts to use FU when none available (Count)
system.cpu_cluster.cpus.statFuNoFree::SimdFloatCvt            0      0.00%      0.55% # attempts to use FU when none available (Count)
system.cpu_cluster.cpus.statFuNoFree::SimdFloatDiv            0      0.00%      0.55% # attempts to use FU when none available (Count)
system.cpu_cluster.cpus.statFuNoFree::SimdFloatMisc            0      0.00%      0.55% # attempts to use FU when none available (Count)
system.cpu_cluster.cpus.statFuNoFree::SimdFloatMult            0      0.00%      0.55% # attempts to use FU when none available (Count)
system.cpu_cluster.cpus.statFuNoFree::SimdFloatMultAcc            0      0.00%      0.55% # attempts to use FU when none available (Count)
system.cpu_cluster.cpus.statFuNoFree::SimdFloatSqrt            0      0.00%      0.55% # attempts to use FU when none available (Count)
system.cpu_cluster.cpus.statFuNoFree::SimdReduceAdd            0      0.00%      0.55% # attempts to use FU when none available (Count)
system.cpu_cluster.cpus.statFuNoFree::SimdReduceAlu            0      0.00%      0.55% # attempts to use FU when none available (Count)
system.cpu_cluster.cpus.statFuNoFree::SimdReduceCmp            0      0.00%      0.55% # attempts to use FU when none available (Count)
system.cpu_cluster.cpus.statFuNoFree::SimdFloatReduceAdd            0      0.00%      0.55% # attempts to use FU when none available (Count)
system.cpu_cluster.cpus.statFuNoFree::SimdFloatReduceCmp            0      0.00%      0.55% # attempts to use FU when none available (Count)
system.cpu_cluster.cpus.statFuNoFree::SimdAes            0      0.00%      0.55% # attempts to use FU when none available (Count)
system.cpu_cluster.cpus.statFuNoFree::SimdAesMix            0      0.00%      0.55% # attempts to use FU when none available (Count)
system.cpu_cluster.cpus.statFuNoFree::SimdSha1Hash            0      0.00%      0.55% # attempts to use FU when none available (Count)
system.cpu_cluster.cpus.statFuNoFree::SimdSha1Hash2            0      0.00%      0.55% # attempts to use FU when none available (Count)
system.cpu_cluster.cpus.statFuNoFree::SimdSha256Hash            0      0.00%      0.55% # attempts to use FU when none available (Count)
system.cpu_cluster.cpus.statFuNoFree::SimdSha256Hash2            0      0.00%      0.55% # attempts to use FU when none available (Count)
system.cpu_cluster.cpus.statFuNoFree::SimdShaSigma2            0      0.00%      0.55% # attempts to use FU when none available (Count)
system.cpu_cluster.cpus.statFuNoFree::SimdShaSigma3            0      0.00%      0.55% # attempts to use FU when none available (Count)
system.cpu_cluster.cpus.statFuNoFree::SimdPredAlu            0      0.00%      0.55% # attempts to use FU when none available (Count)
system.cpu_cluster.cpus.statFuNoFree::MemRead         2489     97.53%     98.08% # attempts to use FU when none available (Count)
system.cpu_cluster.cpus.statFuNoFree::MemWrite           49      1.92%    100.00% # attempts to use FU when none available (Count)
system.cpu_cluster.cpus.statFuNoFree::FloatMemRead            0      0.00%    100.00% # attempts to use FU when none available (Count)
system.cpu_cluster.cpus.statFuNoFree::FloatMemWrite            0      0.00%    100.00% # attempts to use FU when none available (Count)
system.cpu_cluster.cpus.statFuNoFree::IprAccess            0      0.00%    100.00% # attempts to use FU when none available (Count)
system.cpu_cluster.cpus.statFuNoFree::InstPrefetch            0      0.00%    100.00% # attempts to use FU when none available (Count)
system.cpu_cluster.cpus.statAvgFUUtilization::No_OpClass            0      0.00%      0.00% # Avg utilization of FU (Count)
system.cpu_cluster.cpus.statAvgFUUtilization::IntAlu     0.989781     20.90%     20.90% # Avg utilization of FU (Count)
system.cpu_cluster.cpus.statAvgFUUtilization::IntMult     0.251721      5.32%     26.22% # Avg utilization of FU (Count)
system.cpu_cluster.cpus.statAvgFUUtilization::IntDiv     0.251721      5.32%     31.53% # Avg utilization of FU (Count)
system.cpu_cluster.cpus.statAvgFUUtilization::FloatAdd     0.044141      0.93%     32.46% # Avg utilization of FU (Count)
system.cpu_cluster.cpus.statAvgFUUtilization::FloatCmp     0.044141      0.93%     33.40% # Avg utilization of FU (Count)
system.cpu_cluster.cpus.statAvgFUUtilization::FloatCvt     0.044141      0.93%     34.33% # Avg utilization of FU (Count)
system.cpu_cluster.cpus.statAvgFUUtilization::FloatMult     0.044141      0.93%     35.26% # Avg utilization of FU (Count)
system.cpu_cluster.cpus.statAvgFUUtilization::FloatMultAcc     0.044141      0.93%     36.19% # Avg utilization of FU (Count)
system.cpu_cluster.cpus.statAvgFUUtilization::FloatDiv     0.009313      0.20%     36.39% # Avg utilization of FU (Count)
system.cpu_cluster.cpus.statAvgFUUtilization::FloatMisc     0.044141      0.93%     37.32% # Avg utilization of FU (Count)
system.cpu_cluster.cpus.statAvgFUUtilization::FloatSqrt     0.009313      0.20%     37.52% # Avg utilization of FU (Count)
system.cpu_cluster.cpus.statAvgFUUtilization::SimdAdd     0.044141      0.93%     38.45% # Avg utilization of FU (Count)
system.cpu_cluster.cpus.statAvgFUUtilization::SimdAddAcc     0.034829      0.74%     39.19% # Avg utilization of FU (Count)
system.cpu_cluster.cpus.statAvgFUUtilization::SimdAlu     0.044141      0.93%     40.12% # Avg utilization of FU (Count)
system.cpu_cluster.cpus.statAvgFUUtilization::SimdCmp     0.044141      0.93%     41.05% # Avg utilization of FU (Count)
system.cpu_cluster.cpus.statAvgFUUtilization::SimdCvt     0.026744      0.56%     41.61% # Avg utilization of FU (Count)
system.cpu_cluster.cpus.statAvgFUUtilization::SimdMisc     0.044141      0.93%     42.55% # Avg utilization of FU (Count)
system.cpu_cluster.cpus.statAvgFUUtilization::SimdMult     0.044141      0.93%     43.48% # Avg utilization of FU (Count)
system.cpu_cluster.cpus.statAvgFUUtilization::SimdMultAcc     0.009313      0.20%     43.68% # Avg utilization of FU (Count)
system.cpu_cluster.cpus.statAvgFUUtilization::SimdShift     0.034829      0.74%     44.41% # Avg utilization of FU (Count)
system.cpu_cluster.cpus.statAvgFUUtilization::SimdShiftAcc     0.034829      0.74%     45.15% # Avg utilization of FU (Count)
system.cpu_cluster.cpus.statAvgFUUtilization::SimdDiv            0      0.00%     45.15% # Avg utilization of FU (Count)
system.cpu_cluster.cpus.statAvgFUUtilization::SimdSqrt     0.009313      0.20%     45.34% # Avg utilization of FU (Count)
system.cpu_cluster.cpus.statAvgFUUtilization::SimdFloatAdd     0.044141      0.93%     46.27% # Avg utilization of FU (Count)
system.cpu_cluster.cpus.statAvgFUUtilization::SimdFloatAlu            0      0.00%     46.27% # Avg utilization of FU (Count)
system.cpu_cluster.cpus.statAvgFUUtilization::SimdFloatCmp     0.044141      0.93%     47.21% # Avg utilization of FU (Count)
system.cpu_cluster.cpus.statAvgFUUtilization::SimdFloatCvt            0      0.00%     47.21% # Avg utilization of FU (Count)
system.cpu_cluster.cpus.statAvgFUUtilization::SimdFloatDiv     0.009313      0.20%     47.40% # Avg utilization of FU (Count)
system.cpu_cluster.cpus.statAvgFUUtilization::SimdFloatMisc     0.044141      0.93%     48.34% # Avg utilization of FU (Count)
system.cpu_cluster.cpus.statAvgFUUtilization::SimdFloatMult            0      0.00%     48.34% # Avg utilization of FU (Count)
system.cpu_cluster.cpus.statAvgFUUtilization::SimdFloatMultAcc     0.044141      0.93%     49.27% # Avg utilization of FU (Count)
system.cpu_cluster.cpus.statAvgFUUtilization::SimdFloatSqrt     0.009313      0.20%     49.46% # Avg utilization of FU (Count)
system.cpu_cluster.cpus.statAvgFUUtilization::SimdReduceAdd     0.044141      0.93%     50.40% # Avg utilization of FU (Count)
system.cpu_cluster.cpus.statAvgFUUtilization::SimdReduceAlu     0.044141      0.93%     51.33% # Avg utilization of FU (Count)
system.cpu_cluster.cpus.statAvgFUUtilization::SimdReduceCmp     0.034829      0.74%     52.06% # Avg utilization of FU (Count)
system.cpu_cluster.cpus.statAvgFUUtilization::SimdFloatReduceAdd     0.044141      0.93%     53.00% # Avg utilization of FU (Count)
system.cpu_cluster.cpus.statAvgFUUtilization::SimdFloatReduceCmp     0.044141      0.93%     53.93% # Avg utilization of FU (Count)
system.cpu_cluster.cpus.statAvgFUUtilization::SimdAes     0.044141      0.93%     54.86% # Avg utilization of FU (Count)
system.cpu_cluster.cpus.statAvgFUUtilization::SimdAesMix     0.044141      0.93%     55.79% # Avg utilization of FU (Count)
system.cpu_cluster.cpus.statAvgFUUtilization::SimdSha1Hash     0.004700      0.10%     55.89% # Avg utilization of FU (Count)
system.cpu_cluster.cpus.statAvgFUUtilization::SimdSha1Hash2     0.004700      0.10%     55.99% # Avg utilization of FU (Count)
system.cpu_cluster.cpus.statAvgFUUtilization::SimdSha256Hash     0.004700      0.10%     56.09% # Avg utilization of FU (Count)
system.cpu_cluster.cpus.statAvgFUUtilization::SimdSha256Hash2     0.004700      0.10%     56.19% # Avg utilization of FU (Count)
system.cpu_cluster.cpus.statAvgFUUtilization::SimdShaSigma2     0.004700      0.10%     56.29% # Avg utilization of FU (Count)
system.cpu_cluster.cpus.statAvgFUUtilization::SimdShaSigma3     0.004700      0.10%     56.39% # Avg utilization of FU (Count)
system.cpu_cluster.cpus.statAvgFUUtilization::SimdPredAlu     0.266509      5.63%     62.02% # Avg utilization of FU (Count)
system.cpu_cluster.cpus.statAvgFUUtilization::MemRead     0.387595      8.18%     70.20% # Avg utilization of FU (Count)
system.cpu_cluster.cpus.statAvgFUUtilization::MemWrite     0.385942      8.15%     78.35% # Avg utilization of FU (Count)
system.cpu_cluster.cpus.statAvgFUUtilization::FloatMemRead     0.387595      8.18%     86.53% # Avg utilization of FU (Count)
system.cpu_cluster.cpus.statAvgFUUtilization::FloatMemWrite     0.385942      8.15%     94.68% # Avg utilization of FU (Count)
system.cpu_cluster.cpus.statAvgFUUtilization::IprAccess     0.251721      5.32%    100.00% # Avg utilization of FU (Count)
system.cpu_cluster.cpus.statAvgFUUtilization::InstPrefetch            0      0.00%    100.00% # Avg utilization of FU (Count)
system.cpu_cluster.cpus.statFuBusyPerThreadCollective::0          846                       # Number of times instruction not issued because FU not available, per thread (Count)
system.cpu_cluster.cpus.statFuBusyPerThreadCollective::1            0                       # Number of times instruction not issued because FU not available, per thread (Count)
system.cpu_cluster.cpus.statFuBusyPerThreadCollective::2            0                       # Number of times instruction not issued because FU not available, per thread (Count)
system.cpu_cluster.cpus.statFuBusyPerThreadCollective::3            0                       # Number of times instruction not issued because FU not available, per thread (Count)
system.cpu_cluster.cpus.statFuBusyPerThreadCollective::total          846                       # Number of times instruction not issued because FU not available, per thread (Count)
system.cpu_cluster.cpus.statIssuedInstType_0::No_OpClass           12      0.00%      0.00% # Number of instructions issued per FU type, per thread (Count)
system.cpu_cluster.cpus.statIssuedInstType_0::IntAlu       224843     64.23%     64.23% # Number of instructions issued per FU type, per thread (Count)
system.cpu_cluster.cpus.statIssuedInstType_0::IntMult         2335      0.67%     64.90% # Number of instructions issued per FU type, per thread (Count)
system.cpu_cluster.cpus.statIssuedInstType_0::IntDiv          280      0.08%     64.98% # Number of instructions issued per FU type, per thread (Count)
system.cpu_cluster.cpus.statIssuedInstType_0::FloatAdd         2048      0.59%     65.57% # Number of instructions issued per FU type, per thread (Count)
system.cpu_cluster.cpus.statIssuedInstType_0::FloatCmp            0      0.00%     65.57% # Number of instructions issued per FU type, per thread (Count)
system.cpu_cluster.cpus.statIssuedInstType_0::FloatCvt         1906      0.54%     66.11% # Number of instructions issued per FU type, per thread (Count)
system.cpu_cluster.cpus.statIssuedInstType_0::FloatMult         1908      0.55%     66.66% # Number of instructions issued per FU type, per thread (Count)
system.cpu_cluster.cpus.statIssuedInstType_0::FloatMultAcc            0      0.00%     66.66% # Number of instructions issued per FU type, per thread (Count)
system.cpu_cluster.cpus.statIssuedInstType_0::FloatDiv            0      0.00%     66.66% # Number of instructions issued per FU type, per thread (Count)
system.cpu_cluster.cpus.statIssuedInstType_0::FloatMisc         4106      1.17%     67.83% # Number of instructions issued per FU type, per thread (Count)
system.cpu_cluster.cpus.statIssuedInstType_0::FloatSqrt            0      0.00%     67.83% # Number of instructions issued per FU type, per thread (Count)
system.cpu_cluster.cpus.statIssuedInstType_0::SimdAdd           11      0.00%     67.83% # Number of instructions issued per FU type, per thread (Count)
system.cpu_cluster.cpus.statIssuedInstType_0::SimdAddAcc            0      0.00%     67.83% # Number of instructions issued per FU type, per thread (Count)
system.cpu_cluster.cpus.statIssuedInstType_0::SimdAlu            8      0.00%     67.83% # Number of instructions issued per FU type, per thread (Count)
system.cpu_cluster.cpus.statIssuedInstType_0::SimdCmp            8      0.00%     67.84% # Number of instructions issued per FU type, per thread (Count)
system.cpu_cluster.cpus.statIssuedInstType_0::SimdCvt            0      0.00%     67.84% # Number of instructions issued per FU type, per thread (Count)
system.cpu_cluster.cpus.statIssuedInstType_0::SimdMisc          149      0.04%     67.88% # Number of instructions issued per FU type, per thread (Count)
system.cpu_cluster.cpus.statIssuedInstType_0::SimdMult            0      0.00%     67.88% # Number of instructions issued per FU type, per thread (Count)
system.cpu_cluster.cpus.statIssuedInstType_0::SimdMultAcc            0      0.00%     67.88% # Number of instructions issued per FU type, per thread (Count)
system.cpu_cluster.cpus.statIssuedInstType_0::SimdShift            0      0.00%     67.88% # Number of instructions issued per FU type, per thread (Count)
system.cpu_cluster.cpus.statIssuedInstType_0::SimdShiftAcc            0      0.00%     67.88% # Number of instructions issued per FU type, per thread (Count)
system.cpu_cluster.cpus.statIssuedInstType_0::SimdDiv            0      0.00%     67.88% # Number of instructions issued per FU type, per thread (Count)
system.cpu_cluster.cpus.statIssuedInstType_0::SimdSqrt            0      0.00%     67.88% # Number of instructions issued per FU type, per thread (Count)
system.cpu_cluster.cpus.statIssuedInstType_0::SimdFloatAdd            0      0.00%     67.88% # Number of instructions issued per FU type, per thread (Count)
system.cpu_cluster.cpus.statIssuedInstType_0::SimdFloatAlu            0      0.00%     67.88% # Number of instructions issued per FU type, per thread (Count)
system.cpu_cluster.cpus.statIssuedInstType_0::SimdFloatCmp            0      0.00%     67.88% # Number of instructions issued per FU type, per thread (Count)
system.cpu_cluster.cpus.statIssuedInstType_0::SimdFloatCvt            0      0.00%     67.88% # Number of instructions issued per FU type, per thread (Count)
system.cpu_cluster.cpus.statIssuedInstType_0::SimdFloatDiv            0      0.00%     67.88% # Number of instructions issued per FU type, per thread (Count)
system.cpu_cluster.cpus.statIssuedInstType_0::SimdFloatMisc            0      0.00%     67.88% # Number of instructions issued per FU type, per thread (Count)
system.cpu_cluster.cpus.statIssuedInstType_0::SimdFloatMult            0      0.00%     67.88% # Number of instructions issued per FU type, per thread (Count)
system.cpu_cluster.cpus.statIssuedInstType_0::SimdFloatMultAcc            0      0.00%     67.88% # Number of instructions issued per FU type, per thread (Count)
system.cpu_cluster.cpus.statIssuedInstType_0::SimdFloatSqrt            0      0.00%     67.88% # Number of instructions issued per FU type, per thread (Count)
system.cpu_cluster.cpus.statIssuedInstType_0::SimdReduceAdd            0      0.00%     67.88% # Number of instructions issued per FU type, per thread (Count)
system.cpu_cluster.cpus.statIssuedInstType_0::SimdReduceAlu            0      0.00%     67.88% # Number of instructions issued per FU type, per thread (Count)
system.cpu_cluster.cpus.statIssuedInstType_0::SimdReduceCmp            0      0.00%     67.88% # Number of instructions issued per FU type, per thread (Count)
system.cpu_cluster.cpus.statIssuedInstType_0::SimdFloatReduceAdd            0      0.00%     67.88% # Number of instructions issued per FU type, per thread (Count)
system.cpu_cluster.cpus.statIssuedInstType_0::SimdFloatReduceCmp            0      0.00%     67.88% # Number of instructions issued per FU type, per thread (Count)
system.cpu_cluster.cpus.statIssuedInstType_0::SimdAes            0      0.00%     67.88% # Number of instructions issued per FU type, per thread (Count)
system.cpu_cluster.cpus.statIssuedInstType_0::SimdAesMix            0      0.00%     67.88% # Number of instructions issued per FU type, per thread (Count)
system.cpu_cluster.cpus.statIssuedInstType_0::SimdSha1Hash            0      0.00%     67.88% # Number of instructions issued per FU type, per thread (Count)
system.cpu_cluster.cpus.statIssuedInstType_0::SimdSha1Hash2            0      0.00%     67.88% # Number of instructions issued per FU type, per thread (Count)
system.cpu_cluster.cpus.statIssuedInstType_0::SimdSha256Hash            0      0.00%     67.88% # Number of instructions issued per FU type, per thread (Count)
system.cpu_cluster.cpus.statIssuedInstType_0::SimdSha256Hash2            0      0.00%     67.88% # Number of instructions issued per FU type, per thread (Count)
system.cpu_cluster.cpus.statIssuedInstType_0::SimdShaSigma2            0      0.00%     67.88% # Number of instructions issued per FU type, per thread (Count)
system.cpu_cluster.cpus.statIssuedInstType_0::SimdShaSigma3            0      0.00%     67.88% # Number of instructions issued per FU type, per thread (Count)
system.cpu_cluster.cpus.statIssuedInstType_0::SimdPredAlu            0      0.00%     67.88% # Number of instructions issued per FU type, per thread (Count)
system.cpu_cluster.cpus.statIssuedInstType_0::MemRead        65461     18.70%     86.58% # Number of instructions issued per FU type, per thread (Count)
system.cpu_cluster.cpus.statIssuedInstType_0::MemWrite        46980     13.42%    100.00% # Number of instructions issued per FU type, per thread (Count)
system.cpu_cluster.cpus.statIssuedInstType_0::FloatMemRead            0      0.00%    100.00% # Number of instructions issued per FU type, per thread (Count)
system.cpu_cluster.cpus.statIssuedInstType_0::FloatMemWrite            0      0.00%    100.00% # Number of instructions issued per FU type, per thread (Count)
system.cpu_cluster.cpus.statIssuedInstType_0::IprAccess            0      0.00%    100.00% # Number of instructions issued per FU type, per thread (Count)
system.cpu_cluster.cpus.statIssuedInstType_0::InstPrefetch            0      0.00%    100.00% # Number of instructions issued per FU type, per thread (Count)
system.cpu_cluster.cpus.statIssuedInstType_0::total       350055                       # Number of instructions issued per FU type, per thread (Count)
system.cpu_cluster.cpus.statIssuedInstType_1::No_OpClass            0                       # Number of instructions issued per FU type, per thread (Count)
system.cpu_cluster.cpus.statIssuedInstType_1::IntAlu            0                       # Number of instructions issued per FU type, per thread (Count)
system.cpu_cluster.cpus.statIssuedInstType_1::IntMult            0                       # Number of instructions issued per FU type, per thread (Count)
system.cpu_cluster.cpus.statIssuedInstType_1::IntDiv            0                       # Number of instructions issued per FU type, per thread (Count)
system.cpu_cluster.cpus.statIssuedInstType_1::FloatAdd            0                       # Number of instructions issued per FU type, per thread (Count)
system.cpu_cluster.cpus.statIssuedInstType_1::FloatCmp            0                       # Number of instructions issued per FU type, per thread (Count)
system.cpu_cluster.cpus.statIssuedInstType_1::FloatCvt            0                       # Number of instructions issued per FU type, per thread (Count)
system.cpu_cluster.cpus.statIssuedInstType_1::FloatMult            0                       # Number of instructions issued per FU type, per thread (Count)
system.cpu_cluster.cpus.statIssuedInstType_1::FloatMultAcc            0                       # Number of instructions issued per FU type, per thread (Count)
system.cpu_cluster.cpus.statIssuedInstType_1::FloatDiv            0                       # Number of instructions issued per FU type, per thread (Count)
system.cpu_cluster.cpus.statIssuedInstType_1::FloatMisc            0                       # Number of instructions issued per FU type, per thread (Count)
system.cpu_cluster.cpus.statIssuedInstType_1::FloatSqrt            0                       # Number of instructions issued per FU type, per thread (Count)
system.cpu_cluster.cpus.statIssuedInstType_1::SimdAdd            0                       # Number of instructions issued per FU type, per thread (Count)
system.cpu_cluster.cpus.statIssuedInstType_1::SimdAddAcc            0                       # Number of instructions issued per FU type, per thread (Count)
system.cpu_cluster.cpus.statIssuedInstType_1::SimdAlu            0                       # Number of instructions issued per FU type, per thread (Count)
system.cpu_cluster.cpus.statIssuedInstType_1::SimdCmp            0                       # Number of instructions issued per FU type, per thread (Count)
system.cpu_cluster.cpus.statIssuedInstType_1::SimdCvt            0                       # Number of instructions issued per FU type, per thread (Count)
system.cpu_cluster.cpus.statIssuedInstType_1::SimdMisc            0                       # Number of instructions issued per FU type, per thread (Count)
system.cpu_cluster.cpus.statIssuedInstType_1::SimdMult            0                       # Number of instructions issued per FU type, per thread (Count)
system.cpu_cluster.cpus.statIssuedInstType_1::SimdMultAcc            0                       # Number of instructions issued per FU type, per thread (Count)
system.cpu_cluster.cpus.statIssuedInstType_1::SimdShift            0                       # Number of instructions issued per FU type, per thread (Count)
system.cpu_cluster.cpus.statIssuedInstType_1::SimdShiftAcc            0                       # Number of instructions issued per FU type, per thread (Count)
system.cpu_cluster.cpus.statIssuedInstType_1::SimdDiv            0                       # Number of instructions issued per FU type, per thread (Count)
system.cpu_cluster.cpus.statIssuedInstType_1::SimdSqrt            0                       # Number of instructions issued per FU type, per thread (Count)
system.cpu_cluster.cpus.statIssuedInstType_1::SimdFloatAdd            0                       # Number of instructions issued per FU type, per thread (Count)
system.cpu_cluster.cpus.statIssuedInstType_1::SimdFloatAlu            0                       # Number of instructions issued per FU type, per thread (Count)
system.cpu_cluster.cpus.statIssuedInstType_1::SimdFloatCmp            0                       # Number of instructions issued per FU type, per thread (Count)
system.cpu_cluster.cpus.statIssuedInstType_1::SimdFloatCvt            0                       # Number of instructions issued per FU type, per thread (Count)
system.cpu_cluster.cpus.statIssuedInstType_1::SimdFloatDiv            0                       # Number of instructions issued per FU type, per thread (Count)
system.cpu_cluster.cpus.statIssuedInstType_1::SimdFloatMisc            0                       # Number of instructions issued per FU type, per thread (Count)
system.cpu_cluster.cpus.statIssuedInstType_1::SimdFloatMult            0                       # Number of instructions issued per FU type, per thread (Count)
system.cpu_cluster.cpus.statIssuedInstType_1::SimdFloatMultAcc            0                       # Number of instructions issued per FU type, per thread (Count)
system.cpu_cluster.cpus.statIssuedInstType_1::SimdFloatSqrt            0                       # Number of instructions issued per FU type, per thread (Count)
system.cpu_cluster.cpus.statIssuedInstType_1::SimdReduceAdd            0                       # Number of instructions issued per FU type, per thread (Count)
system.cpu_cluster.cpus.statIssuedInstType_1::SimdReduceAlu            0                       # Number of instructions issued per FU type, per thread (Count)
system.cpu_cluster.cpus.statIssuedInstType_1::SimdReduceCmp            0                       # Number of instructions issued per FU type, per thread (Count)
system.cpu_cluster.cpus.statIssuedInstType_1::SimdFloatReduceAdd            0                       # Number of instructions issued per FU type, per thread (Count)
system.cpu_cluster.cpus.statIssuedInstType_1::SimdFloatReduceCmp            0                       # Number of instructions issued per FU type, per thread (Count)
system.cpu_cluster.cpus.statIssuedInstType_1::SimdAes            0                       # Number of instructions issued per FU type, per thread (Count)
system.cpu_cluster.cpus.statIssuedInstType_1::SimdAesMix            0                       # Number of instructions issued per FU type, per thread (Count)
system.cpu_cluster.cpus.statIssuedInstType_1::SimdSha1Hash            0                       # Number of instructions issued per FU type, per thread (Count)
system.cpu_cluster.cpus.statIssuedInstType_1::SimdSha1Hash2            0                       # Number of instructions issued per FU type, per thread (Count)
system.cpu_cluster.cpus.statIssuedInstType_1::SimdSha256Hash            0                       # Number of instructions issued per FU type, per thread (Count)
system.cpu_cluster.cpus.statIssuedInstType_1::SimdSha256Hash2            0                       # Number of instructions issued per FU type, per thread (Count)
system.cpu_cluster.cpus.statIssuedInstType_1::SimdShaSigma2            0                       # Number of instructions issued per FU type, per thread (Count)
system.cpu_cluster.cpus.statIssuedInstType_1::SimdShaSigma3            0                       # Number of instructions issued per FU type, per thread (Count)
system.cpu_cluster.cpus.statIssuedInstType_1::SimdPredAlu            0                       # Number of instructions issued per FU type, per thread (Count)
system.cpu_cluster.cpus.statIssuedInstType_1::MemRead            0                       # Number of instructions issued per FU type, per thread (Count)
system.cpu_cluster.cpus.statIssuedInstType_1::MemWrite            0                       # Number of instructions issued per FU type, per thread (Count)
system.cpu_cluster.cpus.statIssuedInstType_1::FloatMemRead            0                       # Number of instructions issued per FU type, per thread (Count)
system.cpu_cluster.cpus.statIssuedInstType_1::FloatMemWrite            0                       # Number of instructions issued per FU type, per thread (Count)
system.cpu_cluster.cpus.statIssuedInstType_1::IprAccess            0                       # Number of instructions issued per FU type, per thread (Count)
system.cpu_cluster.cpus.statIssuedInstType_1::InstPrefetch            0                       # Number of instructions issued per FU type, per thread (Count)
system.cpu_cluster.cpus.statIssuedInstType_1::total            0                       # Number of instructions issued per FU type, per thread (Count)
system.cpu_cluster.cpus.statIssuedInstType_2::No_OpClass            0                       # Number of instructions issued per FU type, per thread (Count)
system.cpu_cluster.cpus.statIssuedInstType_2::IntAlu            0                       # Number of instructions issued per FU type, per thread (Count)
system.cpu_cluster.cpus.statIssuedInstType_2::IntMult            0                       # Number of instructions issued per FU type, per thread (Count)
system.cpu_cluster.cpus.statIssuedInstType_2::IntDiv            0                       # Number of instructions issued per FU type, per thread (Count)
system.cpu_cluster.cpus.statIssuedInstType_2::FloatAdd            0                       # Number of instructions issued per FU type, per thread (Count)
system.cpu_cluster.cpus.statIssuedInstType_2::FloatCmp            0                       # Number of instructions issued per FU type, per thread (Count)
system.cpu_cluster.cpus.statIssuedInstType_2::FloatCvt            0                       # Number of instructions issued per FU type, per thread (Count)
system.cpu_cluster.cpus.statIssuedInstType_2::FloatMult            0                       # Number of instructions issued per FU type, per thread (Count)
system.cpu_cluster.cpus.statIssuedInstType_2::FloatMultAcc            0                       # Number of instructions issued per FU type, per thread (Count)
system.cpu_cluster.cpus.statIssuedInstType_2::FloatDiv            0                       # Number of instructions issued per FU type, per thread (Count)
system.cpu_cluster.cpus.statIssuedInstType_2::FloatMisc            0                       # Number of instructions issued per FU type, per thread (Count)
system.cpu_cluster.cpus.statIssuedInstType_2::FloatSqrt            0                       # Number of instructions issued per FU type, per thread (Count)
system.cpu_cluster.cpus.statIssuedInstType_2::SimdAdd            0                       # Number of instructions issued per FU type, per thread (Count)
system.cpu_cluster.cpus.statIssuedInstType_2::SimdAddAcc            0                       # Number of instructions issued per FU type, per thread (Count)
system.cpu_cluster.cpus.statIssuedInstType_2::SimdAlu            0                       # Number of instructions issued per FU type, per thread (Count)
system.cpu_cluster.cpus.statIssuedInstType_2::SimdCmp            0                       # Number of instructions issued per FU type, per thread (Count)
system.cpu_cluster.cpus.statIssuedInstType_2::SimdCvt            0                       # Number of instructions issued per FU type, per thread (Count)
system.cpu_cluster.cpus.statIssuedInstType_2::SimdMisc            0                       # Number of instructions issued per FU type, per thread (Count)
system.cpu_cluster.cpus.statIssuedInstType_2::SimdMult            0                       # Number of instructions issued per FU type, per thread (Count)
system.cpu_cluster.cpus.statIssuedInstType_2::SimdMultAcc            0                       # Number of instructions issued per FU type, per thread (Count)
system.cpu_cluster.cpus.statIssuedInstType_2::SimdShift            0                       # Number of instructions issued per FU type, per thread (Count)
system.cpu_cluster.cpus.statIssuedInstType_2::SimdShiftAcc            0                       # Number of instructions issued per FU type, per thread (Count)
system.cpu_cluster.cpus.statIssuedInstType_2::SimdDiv            0                       # Number of instructions issued per FU type, per thread (Count)
system.cpu_cluster.cpus.statIssuedInstType_2::SimdSqrt            0                       # Number of instructions issued per FU type, per thread (Count)
system.cpu_cluster.cpus.statIssuedInstType_2::SimdFloatAdd            0                       # Number of instructions issued per FU type, per thread (Count)
system.cpu_cluster.cpus.statIssuedInstType_2::SimdFloatAlu            0                       # Number of instructions issued per FU type, per thread (Count)
system.cpu_cluster.cpus.statIssuedInstType_2::SimdFloatCmp            0                       # Number of instructions issued per FU type, per thread (Count)
system.cpu_cluster.cpus.statIssuedInstType_2::SimdFloatCvt            0                       # Number of instructions issued per FU type, per thread (Count)
system.cpu_cluster.cpus.statIssuedInstType_2::SimdFloatDiv            0                       # Number of instructions issued per FU type, per thread (Count)
system.cpu_cluster.cpus.statIssuedInstType_2::SimdFloatMisc            0                       # Number of instructions issued per FU type, per thread (Count)
system.cpu_cluster.cpus.statIssuedInstType_2::SimdFloatMult            0                       # Number of instructions issued per FU type, per thread (Count)
system.cpu_cluster.cpus.statIssuedInstType_2::SimdFloatMultAcc            0                       # Number of instructions issued per FU type, per thread (Count)
system.cpu_cluster.cpus.statIssuedInstType_2::SimdFloatSqrt            0                       # Number of instructions issued per FU type, per thread (Count)
system.cpu_cluster.cpus.statIssuedInstType_2::SimdReduceAdd            0                       # Number of instructions issued per FU type, per thread (Count)
system.cpu_cluster.cpus.statIssuedInstType_2::SimdReduceAlu            0                       # Number of instructions issued per FU type, per thread (Count)
system.cpu_cluster.cpus.statIssuedInstType_2::SimdReduceCmp            0                       # Number of instructions issued per FU type, per thread (Count)
system.cpu_cluster.cpus.statIssuedInstType_2::SimdFloatReduceAdd            0                       # Number of instructions issued per FU type, per thread (Count)
system.cpu_cluster.cpus.statIssuedInstType_2::SimdFloatReduceCmp            0                       # Number of instructions issued per FU type, per thread (Count)
system.cpu_cluster.cpus.statIssuedInstType_2::SimdAes            0                       # Number of instructions issued per FU type, per thread (Count)
system.cpu_cluster.cpus.statIssuedInstType_2::SimdAesMix            0                       # Number of instructions issued per FU type, per thread (Count)
system.cpu_cluster.cpus.statIssuedInstType_2::SimdSha1Hash            0                       # Number of instructions issued per FU type, per thread (Count)
system.cpu_cluster.cpus.statIssuedInstType_2::SimdSha1Hash2            0                       # Number of instructions issued per FU type, per thread (Count)
system.cpu_cluster.cpus.statIssuedInstType_2::SimdSha256Hash            0                       # Number of instructions issued per FU type, per thread (Count)
system.cpu_cluster.cpus.statIssuedInstType_2::SimdSha256Hash2            0                       # Number of instructions issued per FU type, per thread (Count)
system.cpu_cluster.cpus.statIssuedInstType_2::SimdShaSigma2            0                       # Number of instructions issued per FU type, per thread (Count)
system.cpu_cluster.cpus.statIssuedInstType_2::SimdShaSigma3            0                       # Number of instructions issued per FU type, per thread (Count)
system.cpu_cluster.cpus.statIssuedInstType_2::SimdPredAlu            0                       # Number of instructions issued per FU type, per thread (Count)
system.cpu_cluster.cpus.statIssuedInstType_2::MemRead            0                       # Number of instructions issued per FU type, per thread (Count)
system.cpu_cluster.cpus.statIssuedInstType_2::MemWrite            0                       # Number of instructions issued per FU type, per thread (Count)
system.cpu_cluster.cpus.statIssuedInstType_2::FloatMemRead            0                       # Number of instructions issued per FU type, per thread (Count)
system.cpu_cluster.cpus.statIssuedInstType_2::FloatMemWrite            0                       # Number of instructions issued per FU type, per thread (Count)
system.cpu_cluster.cpus.statIssuedInstType_2::IprAccess            0                       # Number of instructions issued per FU type, per thread (Count)
system.cpu_cluster.cpus.statIssuedInstType_2::InstPrefetch            0                       # Number of instructions issued per FU type, per thread (Count)
system.cpu_cluster.cpus.statIssuedInstType_2::total            0                       # Number of instructions issued per FU type, per thread (Count)
system.cpu_cluster.cpus.statIssuedInstType_3::No_OpClass            0                       # Number of instructions issued per FU type, per thread (Count)
system.cpu_cluster.cpus.statIssuedInstType_3::IntAlu            0                       # Number of instructions issued per FU type, per thread (Count)
system.cpu_cluster.cpus.statIssuedInstType_3::IntMult            0                       # Number of instructions issued per FU type, per thread (Count)
system.cpu_cluster.cpus.statIssuedInstType_3::IntDiv            0                       # Number of instructions issued per FU type, per thread (Count)
system.cpu_cluster.cpus.statIssuedInstType_3::FloatAdd            0                       # Number of instructions issued per FU type, per thread (Count)
system.cpu_cluster.cpus.statIssuedInstType_3::FloatCmp            0                       # Number of instructions issued per FU type, per thread (Count)
system.cpu_cluster.cpus.statIssuedInstType_3::FloatCvt            0                       # Number of instructions issued per FU type, per thread (Count)
system.cpu_cluster.cpus.statIssuedInstType_3::FloatMult            0                       # Number of instructions issued per FU type, per thread (Count)
system.cpu_cluster.cpus.statIssuedInstType_3::FloatMultAcc            0                       # Number of instructions issued per FU type, per thread (Count)
system.cpu_cluster.cpus.statIssuedInstType_3::FloatDiv            0                       # Number of instructions issued per FU type, per thread (Count)
system.cpu_cluster.cpus.statIssuedInstType_3::FloatMisc            0                       # Number of instructions issued per FU type, per thread (Count)
system.cpu_cluster.cpus.statIssuedInstType_3::FloatSqrt            0                       # Number of instructions issued per FU type, per thread (Count)
system.cpu_cluster.cpus.statIssuedInstType_3::SimdAdd            0                       # Number of instructions issued per FU type, per thread (Count)
system.cpu_cluster.cpus.statIssuedInstType_3::SimdAddAcc            0                       # Number of instructions issued per FU type, per thread (Count)
system.cpu_cluster.cpus.statIssuedInstType_3::SimdAlu            0                       # Number of instructions issued per FU type, per thread (Count)
system.cpu_cluster.cpus.statIssuedInstType_3::SimdCmp            0                       # Number of instructions issued per FU type, per thread (Count)
system.cpu_cluster.cpus.statIssuedInstType_3::SimdCvt            0                       # Number of instructions issued per FU type, per thread (Count)
system.cpu_cluster.cpus.statIssuedInstType_3::SimdMisc            0                       # Number of instructions issued per FU type, per thread (Count)
system.cpu_cluster.cpus.statIssuedInstType_3::SimdMult            0                       # Number of instructions issued per FU type, per thread (Count)
system.cpu_cluster.cpus.statIssuedInstType_3::SimdMultAcc            0                       # Number of instructions issued per FU type, per thread (Count)
system.cpu_cluster.cpus.statIssuedInstType_3::SimdShift            0                       # Number of instructions issued per FU type, per thread (Count)
system.cpu_cluster.cpus.statIssuedInstType_3::SimdShiftAcc            0                       # Number of instructions issued per FU type, per thread (Count)
system.cpu_cluster.cpus.statIssuedInstType_3::SimdDiv            0                       # Number of instructions issued per FU type, per thread (Count)
system.cpu_cluster.cpus.statIssuedInstType_3::SimdSqrt            0                       # Number of instructions issued per FU type, per thread (Count)
system.cpu_cluster.cpus.statIssuedInstType_3::SimdFloatAdd            0                       # Number of instructions issued per FU type, per thread (Count)
system.cpu_cluster.cpus.statIssuedInstType_3::SimdFloatAlu            0                       # Number of instructions issued per FU type, per thread (Count)
system.cpu_cluster.cpus.statIssuedInstType_3::SimdFloatCmp            0                       # Number of instructions issued per FU type, per thread (Count)
system.cpu_cluster.cpus.statIssuedInstType_3::SimdFloatCvt            0                       # Number of instructions issued per FU type, per thread (Count)
system.cpu_cluster.cpus.statIssuedInstType_3::SimdFloatDiv            0                       # Number of instructions issued per FU type, per thread (Count)
system.cpu_cluster.cpus.statIssuedInstType_3::SimdFloatMisc            0                       # Number of instructions issued per FU type, per thread (Count)
system.cpu_cluster.cpus.statIssuedInstType_3::SimdFloatMult            0                       # Number of instructions issued per FU type, per thread (Count)
system.cpu_cluster.cpus.statIssuedInstType_3::SimdFloatMultAcc            0                       # Number of instructions issued per FU type, per thread (Count)
system.cpu_cluster.cpus.statIssuedInstType_3::SimdFloatSqrt            0                       # Number of instructions issued per FU type, per thread (Count)
system.cpu_cluster.cpus.statIssuedInstType_3::SimdReduceAdd            0                       # Number of instructions issued per FU type, per thread (Count)
system.cpu_cluster.cpus.statIssuedInstType_3::SimdReduceAlu            0                       # Number of instructions issued per FU type, per thread (Count)
system.cpu_cluster.cpus.statIssuedInstType_3::SimdReduceCmp            0                       # Number of instructions issued per FU type, per thread (Count)
system.cpu_cluster.cpus.statIssuedInstType_3::SimdFloatReduceAdd            0                       # Number of instructions issued per FU type, per thread (Count)
system.cpu_cluster.cpus.statIssuedInstType_3::SimdFloatReduceCmp            0                       # Number of instructions issued per FU type, per thread (Count)
system.cpu_cluster.cpus.statIssuedInstType_3::SimdAes            0                       # Number of instructions issued per FU type, per thread (Count)
system.cpu_cluster.cpus.statIssuedInstType_3::SimdAesMix            0                       # Number of instructions issued per FU type, per thread (Count)
system.cpu_cluster.cpus.statIssuedInstType_3::SimdSha1Hash            0                       # Number of instructions issued per FU type, per thread (Count)
system.cpu_cluster.cpus.statIssuedInstType_3::SimdSha1Hash2            0                       # Number of instructions issued per FU type, per thread (Count)
system.cpu_cluster.cpus.statIssuedInstType_3::SimdSha256Hash            0                       # Number of instructions issued per FU type, per thread (Count)
system.cpu_cluster.cpus.statIssuedInstType_3::SimdSha256Hash2            0                       # Number of instructions issued per FU type, per thread (Count)
system.cpu_cluster.cpus.statIssuedInstType_3::SimdShaSigma2            0                       # Number of instructions issued per FU type, per thread (Count)
system.cpu_cluster.cpus.statIssuedInstType_3::SimdShaSigma3            0                       # Number of instructions issued per FU type, per thread (Count)
system.cpu_cluster.cpus.statIssuedInstType_3::SimdPredAlu            0                       # Number of instructions issued per FU type, per thread (Count)
system.cpu_cluster.cpus.statIssuedInstType_3::MemRead            0                       # Number of instructions issued per FU type, per thread (Count)
system.cpu_cluster.cpus.statIssuedInstType_3::MemWrite            0                       # Number of instructions issued per FU type, per thread (Count)
system.cpu_cluster.cpus.statIssuedInstType_3::FloatMemRead            0                       # Number of instructions issued per FU type, per thread (Count)
system.cpu_cluster.cpus.statIssuedInstType_3::FloatMemWrite            0                       # Number of instructions issued per FU type, per thread (Count)
system.cpu_cluster.cpus.statIssuedInstType_3::IprAccess            0                       # Number of instructions issued per FU type, per thread (Count)
system.cpu_cluster.cpus.statIssuedInstType_3::InstPrefetch            0                       # Number of instructions issued per FU type, per thread (Count)
system.cpu_cluster.cpus.statIssuedInstType_3::total            0                       # Number of instructions issued per FU type, per thread (Count)
system.cpu_cluster.cpus.statIssuedInstType::total       350055      0.00%      0.00% # Number of instructions issued per FU type, per thread (Count)
system.cpu_cluster.cpus.statFuBusyPerThread_0::No_OpClass            0      0.00%      0.00% # Number of instructions structural stalls per FU type, per thread (Count)
system.cpu_cluster.cpus.statFuBusyPerThread_0::IntAlu            0      0.00%      0.00% # Number of instructions structural stalls per FU type, per thread (Count)
system.cpu_cluster.cpus.statFuBusyPerThread_0::IntMult            0      0.00%      0.00% # Number of instructions structural stalls per FU type, per thread (Count)
system.cpu_cluster.cpus.statFuBusyPerThread_0::IntDiv           13      1.54%      1.54% # Number of instructions structural stalls per FU type, per thread (Count)
system.cpu_cluster.cpus.statFuBusyPerThread_0::FloatAdd            0      0.00%      1.54% # Number of instructions structural stalls per FU type, per thread (Count)
system.cpu_cluster.cpus.statFuBusyPerThread_0::FloatCmp            0      0.00%      1.54% # Number of instructions structural stalls per FU type, per thread (Count)
system.cpu_cluster.cpus.statFuBusyPerThread_0::FloatCvt            0      0.00%      1.54% # Number of instructions structural stalls per FU type, per thread (Count)
system.cpu_cluster.cpus.statFuBusyPerThread_0::FloatMult            0      0.00%      1.54% # Number of instructions structural stalls per FU type, per thread (Count)
system.cpu_cluster.cpus.statFuBusyPerThread_0::FloatMultAcc            0      0.00%      1.54% # Number of instructions structural stalls per FU type, per thread (Count)
system.cpu_cluster.cpus.statFuBusyPerThread_0::FloatDiv            0      0.00%      1.54% # Number of instructions structural stalls per FU type, per thread (Count)
system.cpu_cluster.cpus.statFuBusyPerThread_0::FloatMisc            0      0.00%      1.54% # Number of instructions structural stalls per FU type, per thread (Count)
system.cpu_cluster.cpus.statFuBusyPerThread_0::FloatSqrt            0      0.00%      1.54% # Number of instructions structural stalls per FU type, per thread (Count)
system.cpu_cluster.cpus.statFuBusyPerThread_0::SimdAdd            0      0.00%      1.54% # Number of instructions structural stalls per FU type, per thread (Count)
system.cpu_cluster.cpus.statFuBusyPerThread_0::SimdAddAcc            0      0.00%      1.54% # Number of instructions structural stalls per FU type, per thread (Count)
system.cpu_cluster.cpus.statFuBusyPerThread_0::SimdAlu            0      0.00%      1.54% # Number of instructions structural stalls per FU type, per thread (Count)
system.cpu_cluster.cpus.statFuBusyPerThread_0::SimdCmp            0      0.00%      1.54% # Number of instructions structural stalls per FU type, per thread (Count)
system.cpu_cluster.cpus.statFuBusyPerThread_0::SimdCvt            0      0.00%      1.54% # Number of instructions structural stalls per FU type, per thread (Count)
system.cpu_cluster.cpus.statFuBusyPerThread_0::SimdMisc            0      0.00%      1.54% # Number of instructions structural stalls per FU type, per thread (Count)
system.cpu_cluster.cpus.statFuBusyPerThread_0::SimdMult            0      0.00%      1.54% # Number of instructions structural stalls per FU type, per thread (Count)
system.cpu_cluster.cpus.statFuBusyPerThread_0::SimdMultAcc            0      0.00%      1.54% # Number of instructions structural stalls per FU type, per thread (Count)
system.cpu_cluster.cpus.statFuBusyPerThread_0::SimdShift            0      0.00%      1.54% # Number of instructions structural stalls per FU type, per thread (Count)
system.cpu_cluster.cpus.statFuBusyPerThread_0::SimdShiftAcc            0      0.00%      1.54% # Number of instructions structural stalls per FU type, per thread (Count)
system.cpu_cluster.cpus.statFuBusyPerThread_0::SimdDiv            0      0.00%      1.54% # Number of instructions structural stalls per FU type, per thread (Count)
system.cpu_cluster.cpus.statFuBusyPerThread_0::SimdSqrt            0      0.00%      1.54% # Number of instructions structural stalls per FU type, per thread (Count)
system.cpu_cluster.cpus.statFuBusyPerThread_0::SimdFloatAdd            0      0.00%      1.54% # Number of instructions structural stalls per FU type, per thread (Count)
system.cpu_cluster.cpus.statFuBusyPerThread_0::SimdFloatAlu            0      0.00%      1.54% # Number of instructions structural stalls per FU type, per thread (Count)
system.cpu_cluster.cpus.statFuBusyPerThread_0::SimdFloatCmp            0      0.00%      1.54% # Number of instructions structural stalls per FU type, per thread (Count)
system.cpu_cluster.cpus.statFuBusyPerThread_0::SimdFloatCvt            0      0.00%      1.54% # Number of instructions structural stalls per FU type, per thread (Count)
system.cpu_cluster.cpus.statFuBusyPerThread_0::SimdFloatDiv            0      0.00%      1.54% # Number of instructions structural stalls per FU type, per thread (Count)
system.cpu_cluster.cpus.statFuBusyPerThread_0::SimdFloatMisc            0      0.00%      1.54% # Number of instructions structural stalls per FU type, per thread (Count)
system.cpu_cluster.cpus.statFuBusyPerThread_0::SimdFloatMult            0      0.00%      1.54% # Number of instructions structural stalls per FU type, per thread (Count)
system.cpu_cluster.cpus.statFuBusyPerThread_0::SimdFloatMultAcc            0      0.00%      1.54% # Number of instructions structural stalls per FU type, per thread (Count)
system.cpu_cluster.cpus.statFuBusyPerThread_0::SimdFloatSqrt            0      0.00%      1.54% # Number of instructions structural stalls per FU type, per thread (Count)
system.cpu_cluster.cpus.statFuBusyPerThread_0::SimdReduceAdd            0      0.00%      1.54% # Number of instructions structural stalls per FU type, per thread (Count)
system.cpu_cluster.cpus.statFuBusyPerThread_0::SimdReduceAlu            0      0.00%      1.54% # Number of instructions structural stalls per FU type, per thread (Count)
system.cpu_cluster.cpus.statFuBusyPerThread_0::SimdReduceCmp            0      0.00%      1.54% # Number of instructions structural stalls per FU type, per thread (Count)
system.cpu_cluster.cpus.statFuBusyPerThread_0::SimdFloatReduceAdd            0      0.00%      1.54% # Number of instructions structural stalls per FU type, per thread (Count)
system.cpu_cluster.cpus.statFuBusyPerThread_0::SimdFloatReduceCmp            0      0.00%      1.54% # Number of instructions structural stalls per FU type, per thread (Count)
system.cpu_cluster.cpus.statFuBusyPerThread_0::SimdAes            0      0.00%      1.54% # Number of instructions structural stalls per FU type, per thread (Count)
system.cpu_cluster.cpus.statFuBusyPerThread_0::SimdAesMix            0      0.00%      1.54% # Number of instructions structural stalls per FU type, per thread (Count)
system.cpu_cluster.cpus.statFuBusyPerThread_0::SimdSha1Hash            0      0.00%      1.54% # Number of instructions structural stalls per FU type, per thread (Count)
system.cpu_cluster.cpus.statFuBusyPerThread_0::SimdSha1Hash2            0      0.00%      1.54% # Number of instructions structural stalls per FU type, per thread (Count)
system.cpu_cluster.cpus.statFuBusyPerThread_0::SimdSha256Hash            0      0.00%      1.54% # Number of instructions structural stalls per FU type, per thread (Count)
system.cpu_cluster.cpus.statFuBusyPerThread_0::SimdSha256Hash2            0      0.00%      1.54% # Number of instructions structural stalls per FU type, per thread (Count)
system.cpu_cluster.cpus.statFuBusyPerThread_0::SimdShaSigma2            0      0.00%      1.54% # Number of instructions structural stalls per FU type, per thread (Count)
system.cpu_cluster.cpus.statFuBusyPerThread_0::SimdShaSigma3            0      0.00%      1.54% # Number of instructions structural stalls per FU type, per thread (Count)
system.cpu_cluster.cpus.statFuBusyPerThread_0::SimdPredAlu            0      0.00%      1.54% # Number of instructions structural stalls per FU type, per thread (Count)
system.cpu_cluster.cpus.statFuBusyPerThread_0::MemRead          833     98.46%    100.00% # Number of instructions structural stalls per FU type, per thread (Count)
system.cpu_cluster.cpus.statFuBusyPerThread_0::MemWrite            0      0.00%    100.00% # Number of instructions structural stalls per FU type, per thread (Count)
system.cpu_cluster.cpus.statFuBusyPerThread_0::FloatMemRead            0      0.00%    100.00% # Number of instructions structural stalls per FU type, per thread (Count)
system.cpu_cluster.cpus.statFuBusyPerThread_0::FloatMemWrite            0      0.00%    100.00% # Number of instructions structural stalls per FU type, per thread (Count)
system.cpu_cluster.cpus.statFuBusyPerThread_0::IprAccess            0      0.00%    100.00% # Number of instructions structural stalls per FU type, per thread (Count)
system.cpu_cluster.cpus.statFuBusyPerThread_0::InstPrefetch            0      0.00%    100.00% # Number of instructions structural stalls per FU type, per thread (Count)
system.cpu_cluster.cpus.statFuBusyPerThread_0::total          846                       # Number of instructions structural stalls per FU type, per thread (Count)
system.cpu_cluster.cpus.statFuBusyPerThread_1::No_OpClass            0                       # Number of instructions structural stalls per FU type, per thread (Count)
system.cpu_cluster.cpus.statFuBusyPerThread_1::IntAlu            0                       # Number of instructions structural stalls per FU type, per thread (Count)
system.cpu_cluster.cpus.statFuBusyPerThread_1::IntMult            0                       # Number of instructions structural stalls per FU type, per thread (Count)
system.cpu_cluster.cpus.statFuBusyPerThread_1::IntDiv            0                       # Number of instructions structural stalls per FU type, per thread (Count)
system.cpu_cluster.cpus.statFuBusyPerThread_1::FloatAdd            0                       # Number of instructions structural stalls per FU type, per thread (Count)
system.cpu_cluster.cpus.statFuBusyPerThread_1::FloatCmp            0                       # Number of instructions structural stalls per FU type, per thread (Count)
system.cpu_cluster.cpus.statFuBusyPerThread_1::FloatCvt            0                       # Number of instructions structural stalls per FU type, per thread (Count)
system.cpu_cluster.cpus.statFuBusyPerThread_1::FloatMult            0                       # Number of instructions structural stalls per FU type, per thread (Count)
system.cpu_cluster.cpus.statFuBusyPerThread_1::FloatMultAcc            0                       # Number of instructions structural stalls per FU type, per thread (Count)
system.cpu_cluster.cpus.statFuBusyPerThread_1::FloatDiv            0                       # Number of instructions structural stalls per FU type, per thread (Count)
system.cpu_cluster.cpus.statFuBusyPerThread_1::FloatMisc            0                       # Number of instructions structural stalls per FU type, per thread (Count)
system.cpu_cluster.cpus.statFuBusyPerThread_1::FloatSqrt            0                       # Number of instructions structural stalls per FU type, per thread (Count)
system.cpu_cluster.cpus.statFuBusyPerThread_1::SimdAdd            0                       # Number of instructions structural stalls per FU type, per thread (Count)
system.cpu_cluster.cpus.statFuBusyPerThread_1::SimdAddAcc            0                       # Number of instructions structural stalls per FU type, per thread (Count)
system.cpu_cluster.cpus.statFuBusyPerThread_1::SimdAlu            0                       # Number of instructions structural stalls per FU type, per thread (Count)
system.cpu_cluster.cpus.statFuBusyPerThread_1::SimdCmp            0                       # Number of instructions structural stalls per FU type, per thread (Count)
system.cpu_cluster.cpus.statFuBusyPerThread_1::SimdCvt            0                       # Number of instructions structural stalls per FU type, per thread (Count)
system.cpu_cluster.cpus.statFuBusyPerThread_1::SimdMisc            0                       # Number of instructions structural stalls per FU type, per thread (Count)
system.cpu_cluster.cpus.statFuBusyPerThread_1::SimdMult            0                       # Number of instructions structural stalls per FU type, per thread (Count)
system.cpu_cluster.cpus.statFuBusyPerThread_1::SimdMultAcc            0                       # Number of instructions structural stalls per FU type, per thread (Count)
system.cpu_cluster.cpus.statFuBusyPerThread_1::SimdShift            0                       # Number of instructions structural stalls per FU type, per thread (Count)
system.cpu_cluster.cpus.statFuBusyPerThread_1::SimdShiftAcc            0                       # Number of instructions structural stalls per FU type, per thread (Count)
system.cpu_cluster.cpus.statFuBusyPerThread_1::SimdDiv            0                       # Number of instructions structural stalls per FU type, per thread (Count)
system.cpu_cluster.cpus.statFuBusyPerThread_1::SimdSqrt            0                       # Number of instructions structural stalls per FU type, per thread (Count)
system.cpu_cluster.cpus.statFuBusyPerThread_1::SimdFloatAdd            0                       # Number of instructions structural stalls per FU type, per thread (Count)
system.cpu_cluster.cpus.statFuBusyPerThread_1::SimdFloatAlu            0                       # Number of instructions structural stalls per FU type, per thread (Count)
system.cpu_cluster.cpus.statFuBusyPerThread_1::SimdFloatCmp            0                       # Number of instructions structural stalls per FU type, per thread (Count)
system.cpu_cluster.cpus.statFuBusyPerThread_1::SimdFloatCvt            0                       # Number of instructions structural stalls per FU type, per thread (Count)
system.cpu_cluster.cpus.statFuBusyPerThread_1::SimdFloatDiv            0                       # Number of instructions structural stalls per FU type, per thread (Count)
system.cpu_cluster.cpus.statFuBusyPerThread_1::SimdFloatMisc            0                       # Number of instructions structural stalls per FU type, per thread (Count)
system.cpu_cluster.cpus.statFuBusyPerThread_1::SimdFloatMult            0                       # Number of instructions structural stalls per FU type, per thread (Count)
system.cpu_cluster.cpus.statFuBusyPerThread_1::SimdFloatMultAcc            0                       # Number of instructions structural stalls per FU type, per thread (Count)
system.cpu_cluster.cpus.statFuBusyPerThread_1::SimdFloatSqrt            0                       # Number of instructions structural stalls per FU type, per thread (Count)
system.cpu_cluster.cpus.statFuBusyPerThread_1::SimdReduceAdd            0                       # Number of instructions structural stalls per FU type, per thread (Count)
system.cpu_cluster.cpus.statFuBusyPerThread_1::SimdReduceAlu            0                       # Number of instructions structural stalls per FU type, per thread (Count)
system.cpu_cluster.cpus.statFuBusyPerThread_1::SimdReduceCmp            0                       # Number of instructions structural stalls per FU type, per thread (Count)
system.cpu_cluster.cpus.statFuBusyPerThread_1::SimdFloatReduceAdd            0                       # Number of instructions structural stalls per FU type, per thread (Count)
system.cpu_cluster.cpus.statFuBusyPerThread_1::SimdFloatReduceCmp            0                       # Number of instructions structural stalls per FU type, per thread (Count)
system.cpu_cluster.cpus.statFuBusyPerThread_1::SimdAes            0                       # Number of instructions structural stalls per FU type, per thread (Count)
system.cpu_cluster.cpus.statFuBusyPerThread_1::SimdAesMix            0                       # Number of instructions structural stalls per FU type, per thread (Count)
system.cpu_cluster.cpus.statFuBusyPerThread_1::SimdSha1Hash            0                       # Number of instructions structural stalls per FU type, per thread (Count)
system.cpu_cluster.cpus.statFuBusyPerThread_1::SimdSha1Hash2            0                       # Number of instructions structural stalls per FU type, per thread (Count)
system.cpu_cluster.cpus.statFuBusyPerThread_1::SimdSha256Hash            0                       # Number of instructions structural stalls per FU type, per thread (Count)
system.cpu_cluster.cpus.statFuBusyPerThread_1::SimdSha256Hash2            0                       # Number of instructions structural stalls per FU type, per thread (Count)
system.cpu_cluster.cpus.statFuBusyPerThread_1::SimdShaSigma2            0                       # Number of instructions structural stalls per FU type, per thread (Count)
system.cpu_cluster.cpus.statFuBusyPerThread_1::SimdShaSigma3            0                       # Number of instructions structural stalls per FU type, per thread (Count)
system.cpu_cluster.cpus.statFuBusyPerThread_1::SimdPredAlu            0                       # Number of instructions structural stalls per FU type, per thread (Count)
system.cpu_cluster.cpus.statFuBusyPerThread_1::MemRead            0                       # Number of instructions structural stalls per FU type, per thread (Count)
system.cpu_cluster.cpus.statFuBusyPerThread_1::MemWrite            0                       # Number of instructions structural stalls per FU type, per thread (Count)
system.cpu_cluster.cpus.statFuBusyPerThread_1::FloatMemRead            0                       # Number of instructions structural stalls per FU type, per thread (Count)
system.cpu_cluster.cpus.statFuBusyPerThread_1::FloatMemWrite            0                       # Number of instructions structural stalls per FU type, per thread (Count)
system.cpu_cluster.cpus.statFuBusyPerThread_1::IprAccess            0                       # Number of instructions structural stalls per FU type, per thread (Count)
system.cpu_cluster.cpus.statFuBusyPerThread_1::InstPrefetch            0                       # Number of instructions structural stalls per FU type, per thread (Count)
system.cpu_cluster.cpus.statFuBusyPerThread_1::total            0                       # Number of instructions structural stalls per FU type, per thread (Count)
system.cpu_cluster.cpus.statFuBusyPerThread_2::No_OpClass            0                       # Number of instructions structural stalls per FU type, per thread (Count)
system.cpu_cluster.cpus.statFuBusyPerThread_2::IntAlu            0                       # Number of instructions structural stalls per FU type, per thread (Count)
system.cpu_cluster.cpus.statFuBusyPerThread_2::IntMult            0                       # Number of instructions structural stalls per FU type, per thread (Count)
system.cpu_cluster.cpus.statFuBusyPerThread_2::IntDiv            0                       # Number of instructions structural stalls per FU type, per thread (Count)
system.cpu_cluster.cpus.statFuBusyPerThread_2::FloatAdd            0                       # Number of instructions structural stalls per FU type, per thread (Count)
system.cpu_cluster.cpus.statFuBusyPerThread_2::FloatCmp            0                       # Number of instructions structural stalls per FU type, per thread (Count)
system.cpu_cluster.cpus.statFuBusyPerThread_2::FloatCvt            0                       # Number of instructions structural stalls per FU type, per thread (Count)
[...]
system.mem_ctrls1.dram.perBankRdBursts::13            0                       # Per bank write bursts (Count)
system.mem_ctrls1.dram.perBankRdBursts::14           18                       # Per bank write bursts (Count)
system.mem_ctrls1.dram.perBankRdBursts::15            0                       # Per bank write bursts (Count)
system.mem_ctrls1.dram.perBankRdBursts::16            7                       # Per bank write bursts (Count)
system.mem_ctrls1.dram.perBankRdBursts::17            2                       # Per bank write bursts (Count)
system.mem_ctrls1.dram.perBankRdBursts::18            0                       # Per bank write bursts (Count)
system.mem_ctrls1.dram.perBankRdBursts::19            0                       # Per bank write bursts (Count)
system.mem_ctrls1.dram.perBankRdBursts::20           46                       # Per bank write bursts (Count)
system.mem_ctrls1.dram.perBankRdBursts::21            1                       # Per bank write bursts (Count)
system.mem_ctrls1.dram.perBankRdBursts::22            8                       # Per bank write bursts (Count)
system.mem_ctrls1.dram.perBankRdBursts::23            2                       # Per bank write bursts (Count)
system.mem_ctrls1.dram.perBankRdBursts::24            1                       # Per bank write bursts (Count)
system.mem_ctrls1.dram.perBankRdBursts::25            1                       # Per bank write bursts (Count)
system.mem_ctrls1.dram.perBankRdBursts::26            0                       # Per bank write bursts (Count)
system.mem_ctrls1.dram.perBankRdBursts::27            0                       # Per bank write bursts (Count)
system.mem_ctrls1.dram.perBankRdBursts::28            2                       # Per bank write bursts (Count)
system.mem_ctrls1.dram.perBankRdBursts::29            4                       # Per bank write bursts (Count)
system.mem_ctrls1.dram.perBankRdBursts::30            0                       # Per bank write bursts (Count)
system.mem_ctrls1.dram.perBankRdBursts::31            0                       # Per bank write bursts (Count)
system.mem_ctrls1.dram.perBankWrBursts::0            0                       # Per bank write bursts (Count)
system.mem_ctrls1.dram.perBankWrBursts::1            0                       # Per bank write bursts (Count)
system.mem_ctrls1.dram.perBankWrBursts::2            0                       # Per bank write bursts (Count)
system.mem_ctrls1.dram.perBankWrBursts::3            0                       # Per bank write bursts (Count)
system.mem_ctrls1.dram.perBankWrBursts::4            0                       # Per bank write bursts (Count)
system.mem_ctrls1.dram.perBankWrBursts::5            0                       # Per bank write bursts (Count)
system.mem_ctrls1.dram.perBankWrBursts::6            0                       # Per bank write bursts (Count)
system.mem_ctrls1.dram.perBankWrBursts::7            0                       # Per bank write bursts (Count)
system.mem_ctrls1.dram.perBankWrBursts::8            0                       # Per bank write bursts (Count)
system.mem_ctrls1.dram.perBankWrBursts::9            0                       # Per bank write bursts (Count)
system.mem_ctrls1.dram.perBankWrBursts::10            0                       # Per bank write bursts (Count)
system.mem_ctrls1.dram.perBankWrBursts::11            0                       # Per bank write bursts (Count)
system.mem_ctrls1.dram.perBankWrBursts::12            0                       # Per bank write bursts (Count)
system.mem_ctrls1.dram.perBankWrBursts::13            0                       # Per bank write bursts (Count)
system.mem_ctrls1.dram.perBankWrBursts::14            0                       # Per bank write bursts (Count)
system.mem_ctrls1.dram.perBankWrBursts::15            0                       # Per bank write bursts (Count)
system.mem_ctrls1.dram.perBankWrBursts::16            0                       # Per bank write bursts (Count)
system.mem_ctrls1.dram.perBankWrBursts::17            0                       # Per bank write bursts (Count)
system.mem_ctrls1.dram.perBankWrBursts::18            0                       # Per bank write bursts (Count)
system.mem_ctrls1.dram.perBankWrBursts::19            0                       # Per bank write bursts (Count)
system.mem_ctrls1.dram.perBankWrBursts::20            0                       # Per bank write bursts (Count)
system.mem_ctrls1.dram.perBankWrBursts::21            0                       # Per bank write bursts (Count)
system.mem_ctrls1.dram.perBankWrBursts::22            0                       # Per bank write bursts (Count)
system.mem_ctrls1.dram.perBankWrBursts::23            0                       # Per bank write bursts (Count)
system.mem_ctrls1.dram.perBankWrBursts::24            0                       # Per bank write bursts (Count)
system.mem_ctrls1.dram.perBankWrBursts::25            0                       # Per bank write bursts (Count)
system.mem_ctrls1.dram.perBankWrBursts::26            0                       # Per bank write bursts (Count)
system.mem_ctrls1.dram.perBankWrBursts::27            0                       # Per bank write bursts (Count)
system.mem_ctrls1.dram.perBankWrBursts::28            0                       # Per bank write bursts (Count)
system.mem_ctrls1.dram.perBankWrBursts::29            0                       # Per bank write bursts (Count)
system.mem_ctrls1.dram.perBankWrBursts::30            0                       # Per bank write bursts (Count)
system.mem_ctrls1.dram.perBankWrBursts::31            0                       # Per bank write bursts (Count)
system.mem_ctrls1.dram.totQLat                1144682                       # Total ticks spent queuing (Tick)
system.mem_ctrls1.dram.totBusLat               573104                       # Total ticks spent in databus transfers (Tick)
system.mem_ctrls1.dram.totMemAccLat           4153306                       # Total ticks spent from burst creation until serviced by the DRAM (Tick)
system.mem_ctrls1.dram.avgQLat                6655.13                       # Average queueing delay per DRAM burst ((Tick/Count))
system.mem_ctrls1.dram.avgBusLat              3332.00                       # Average bus latency per DRAM burst ((Tick/Count))
system.mem_ctrls1.dram.avgMemAccLat          24147.13                       # Average memory access latency per DRAM burst ((Tick/Count))
system.mem_ctrls1.dram.readRowHits                131                       # Number of row buffer hits during reads (Count)
system.mem_ctrls1.dram.writeRowHits                 0                       # Number of row buffer hits during writes (Count)
system.mem_ctrls1.dram.readRowHitRate           76.16                       # Row buffer hit rate for reads (Ratio)
system.mem_ctrls1.dram.writeRowHitRate            nan                       # Row buffer hit rate for writes (Ratio)
system.mem_ctrls1.dram.bytesPerActivate::samples           32                       # Bytes accessed per row activation (Byte)
system.mem_ctrls1.dram.bytesPerActivate::mean          274                       # Bytes accessed per row activation (Byte)
system.mem_ctrls1.dram.bytesPerActivate::gmean   172.062743                       # Bytes accessed per row activation (Byte)
system.mem_ctrls1.dram.bytesPerActivate::stdev   270.179868                       # Bytes accessed per row activation (Byte)
system.mem_ctrls1.dram.bytesPerActivate::0-127           14     43.75%     43.75% # Bytes accessed per row activation (Byte)
system.mem_ctrls1.dram.bytesPerActivate::128-255            3      9.38%     53.12% # Bytes accessed per row activation (Byte)
system.mem_ctrls1.dram.bytesPerActivate::256-383            5     15.62%     68.75% # Bytes accessed per row activation (Byte)
system.mem_ctrls1.dram.bytesPerActivate::384-511            4     12.50%     81.25% # Bytes accessed per row activation (Byte)
system.mem_ctrls1.dram.bytesPerActivate::512-639            2      6.25%     87.50% # Bytes accessed per row activation (Byte)
system.mem_ctrls1.dram.bytesPerActivate::640-767            2      6.25%     93.75% # Bytes accessed per row activation (Byte)
system.mem_ctrls1.dram.bytesPerActivate::1024-1151            2      6.25%    100.00% # Bytes accessed per row activation (Byte)
system.mem_ctrls1.dram.bytesPerActivate::total           32                       # Bytes accessed per row activation (Byte)
system.mem_ctrls1.dram.bytesRead                11008                       # Total bytes read (Byte)
system.mem_ctrls1.dram.bytesWritten                 0                       # Total bytes written (Byte)
system.mem_ctrls1.dram.avgRdBW             667.272837                       # Average DRAM read bandwidth in MiBytes/s ((Byte/Second))
system.mem_ctrls1.dram.avgWrBW                      0                       # Average DRAM write bandwidth in MiBytes/s ((Byte/Second))
system.mem_ctrls1.dram.peakBW                19207.00                       # Theoretical peak bandwidth in MiByte/s ((Byte/Second))
system.mem_ctrls1.dram.busUtil                   3.47                       # Data bus utilization in percentage (Ratio)
system.mem_ctrls1.dram.busUtilRead               3.47                       # Data bus utilization in percentage for reads (Ratio)
system.mem_ctrls1.dram.busUtilWrite              0.00                       # Data bus utilization in percentage for writes (Ratio)
system.mem_ctrls1.dram.pageHitRate              76.16                       # Row buffer hit rate, read and write combined (Ratio)
system.mem_ctrls1.dram.power_state.pwrStateResidencyTicks::UNDEFINED     16497000                       # Cumulative time (in ticks) in various power states (Tick)
system.mem_ctrls1.dram.rank0.actEnergy   74850.048000                       # Energy for activate commands per rank (pJ) (Joule)
system.mem_ctrls1.dram.rank0.preEnergy   87073.156800                       # Energy for precharge commands per rank (pJ) (Joule)
system.mem_ctrls1.dram.rank0.readEnergy  412219.046400                       # Energy for read commands per rank (pJ) (Joule)
system.mem_ctrls1.dram.rank0.writeEnergy            0                       # Energy for write commands per rank (pJ) (Joule)
system.mem_ctrls1.dram.rank0.refreshEnergy 2770755.254400                       # Energy for refresh commands per rank (pJ) (Joule)
system.mem_ctrls1.dram.rank0.actBackEnergy 11073644.769600                       # Energy for active background per rank (pJ) (Joule)
system.mem_ctrls1.dram.rank0.preBackEnergy 2261047.219200                       # Energy for precharge background per rank (pJ) (Joule)
system.mem_ctrls1.dram.rank0.actPowerDownEnergy            0                       # Energy for active power-down per rank (pJ) (Joule)
system.mem_ctrls1.dram.rank0.prePowerDownEnergy            0                       # Energy for precharge power-down per rank (pJ) (Joule)
system.mem_ctrls1.dram.rank0.selfRefreshEnergy            0                       # Energy for self refresh per rank (pJ) (Joule)
system.mem_ctrls1.dram.rank0.totalEnergy 16679589.494400                       # Total energy per rank (pJ) (Joule)
system.mem_ctrls1.dram.rank0.averagePower  1011.068042                       # Core power per rank (mW) (Watt)
system.mem_ctrls1.dram.rank0.totalIdleTime            0                       # Total Idle time Per DRAM Rank (Tick)
system.mem_ctrls1.dram.rank0.pwrStateTime::IDLE      3407680                       # Time in different power states (Tick)
system.mem_ctrls1.dram.rank0.pwrStateTime::REF       700000                       # Time in different power states (Tick)
system.mem_ctrls1.dram.rank0.pwrStateTime::SREF            0                       # Time in different power states (Tick)
system.mem_ctrls1.dram.rank0.pwrStateTime::PRE_PDN            0                       # Time in different power states (Tick)
system.mem_ctrls1.dram.rank0.pwrStateTime::ACT     12389320                       # Time in different power states (Tick)
system.mem_ctrls1.dram.rank0.pwrStateTime::ACT_PDN            0                       # Time in different power states (Tick)
system.mem_ctrls1.dram.rank1.actEnergy   53018.784000                       # Energy for activate commands per rank (pJ) (Joule)
system.mem_ctrls1.dram.rank1.preEnergy   45609.748800                       # Energy for precharge commands per rank (pJ) (Joule)
system.mem_ctrls1.dram.rank1.readEnergy  311267.443200                       # Energy for read commands per rank (pJ) (Joule)
system.mem_ctrls1.dram.rank1.writeEnergy            0                       # Energy for write commands per rank (pJ) (Joule)
system.mem_ctrls1.dram.rank1.refreshEnergy 2770755.254400                       # Energy for refresh commands per rank (pJ) (Joule)
system.mem_ctrls1.dram.rank1.actBackEnergy 13720505.601600                       # Energy for active background per rank (pJ) (Joule)
system.mem_ctrls1.dram.rank1.preBackEnergy 227301.043200                       # Energy for precharge background per rank (pJ) (Joule)
system.mem_ctrls1.dram.rank1.actPowerDownEnergy            0                       # Energy for active power-down per rank (pJ) (Joule)
system.mem_ctrls1.dram.rank1.prePowerDownEnergy            0                       # Energy for precharge power-down per rank (pJ) (Joule)
system.mem_ctrls1.dram.rank1.selfRefreshEnergy            0                       # Energy for self refresh per rank (pJ) (Joule)
system.mem_ctrls1.dram.rank1.totalEnergy 17128457.875200                       # Total energy per rank (pJ) (Joule)
system.mem_ctrls1.dram.rank1.averagePower  1038.277134                       # Core power per rank (mW) (Watt)
system.mem_ctrls1.dram.rank1.totalIdleTime            0                       # Total Idle time Per DRAM Rank (Tick)
system.mem_ctrls1.dram.rank1.pwrStateTime::IDLE       292450                       # Time in different power states (Tick)
system.mem_ctrls1.dram.rank1.pwrStateTime::REF       700000                       # Time in different power states (Tick)
system.mem_ctrls1.dram.rank1.pwrStateTime::SREF            0                       # Time in different power states (Tick)
system.mem_ctrls1.dram.rank1.pwrStateTime::PRE_PDN            0                       # Time in different power states (Tick)
system.mem_ctrls1.dram.rank1.pwrStateTime::ACT     15504550                       # Time in different power states (Tick)
system.mem_ctrls1.dram.rank1.pwrStateTime::ACT_PDN            0                       # Time in different power states (Tick)
system.mem_ctrls1.power_state.pwrStateResidencyTicks::UNDEFINED     16497000                       # Cumulative time (in ticks) in various power states (Tick)
system.membus.transDist::ReadResp                 314                       # Transaction distribution (Count)
system.membus.transDist::ReadExReq                 20                       # Transaction distribution (Count)
system.membus.transDist::ReadExResp                20                       # Transaction distribution (Count)
system.membus.transDist::ReadCleanReq             314                       # Transaction distribution (Count)
system.membus.pktCount_system.cpu_cluster.l2.mem_side_port::system.mem_ctrls0.port          325                       # Packet count per connected requestor and responder (Count)
system.membus.pktCount_system.cpu_cluster.l2.mem_side_port::system.mem_ctrls1.port          343                       # Packet count per connected requestor and responder (Count)
system.membus.pktCount_system.cpu_cluster.l2.mem_side_port::total          668                       # Packet count per connected requestor and responder (Count)
system.membus.pktCount::total                     668                       # Packet count per connected requestor and responder (Count)
system.membus.pktSize_system.cpu_cluster.l2.mem_side_port::system.mem_ctrls0.port        10432                       # Cumulative packet size per connected requestor and responder (Byte)
system.membus.pktSize_system.cpu_cluster.l2.mem_side_port::system.mem_ctrls1.port        10944                       # Cumulative packet size per connected requestor and responder (Byte)
system.membus.pktSize_system.cpu_cluster.l2.mem_side_port::total        21376                       # Cumulative packet size per connected requestor and responder (Byte)
system.membus.pktSize::total                    21376                       # Cumulative packet size per connected requestor and responder (Byte)
system.membus.snoops                                0                       # Total snoops (Count)
system.membus.snoopTraffic                          0                       # Total snoop traffic (Byte)
system.membus.snoopFanout::samples                334                       # Request fanout histogram (Count)
system.membus.snoopFanout::mean                     0                       # Request fanout histogram (Count)
system.membus.snoopFanout::stdev                    0                       # Request fanout histogram (Count)
system.membus.snoopFanout::underflows               0      0.00%      0.00% # Request fanout histogram (Count)
system.membus.snoopFanout::0                      334    100.00%    100.00% # Request fanout histogram (Count)
system.membus.snoopFanout::1                        0      0.00%    100.00% # Request fanout histogram (Count)
system.membus.snoopFanout::overflows                0      0.00%    100.00% # Request fanout histogram (Count)
system.membus.snoopFanout::min_value                0                       # Request fanout histogram (Count)
system.membus.snoopFanout::max_value                0                       # Request fanout histogram (Count)
system.membus.snoopFanout::total                  334                       # Request fanout histogram (Count)
system.membus.power_state.pwrStateResidencyTicks::UNDEFINED     16497000                       # Cumulative time (in ticks) in various power states (Tick)
system.membus.reqLayer0.occupancy              235249                       # Layer occupancy (ticks) (Tick)
system.membus.reqLayer0.utilization               0.0                       # Layer utilization (Ratio)
system.membus.reqLayer1.occupancy              239500                       # Layer occupancy (ticks) (Tick)
system.membus.reqLayer1.utilization               0.0                       # Layer utilization (Ratio)
system.membus.respLayer1.occupancy            1786582                       # Layer occupancy (ticks) (Tick)
system.membus.respLayer1.utilization              0.1                       # Layer utilization (Ratio)
system.membus.snoop_filter.totRequests            334                       # Total number of requests made to the snoop filter. (Count)
system.membus.snoop_filter.hitSingleRequests            1                       # Number of requests hitting in the snoop filter with a single holder of the requested data. (Count)
system.membus.snoop_filter.hitMultiRequests            0                       # Number of requests hitting in the snoop filter with multiple (>1) holders of the requested data. (Count)
system.membus.snoop_filter.totSnoops                0                       # Total number of snoops made to the snoop filter. (Count)
system.membus.snoop_filter.hitSingleSnoops            0                       # Number of snoops hitting in the snoop filter with a single holder of the requested data. (Count)
system.membus.snoop_filter.hitMultiSnoops            0                       # Number of snoops hitting in the snoop filter with multiple (>1) holders of the requested data. (Count)
system.voltage_domain.voltage                3.300000                       # Voltage in Volts (Volt)
system.workload.inst.arm                            0                       # number of arm instructions executed (Count)
system.workload.inst.quiesce                        0                       # number of quiesce instructions executed (Count)

---------- End Simulation Statistics   ----------
